 xtb: 6.6.1 (8d0f1dd)
          04232412093D

 14 13  0     0  0            999 V2000
   -1.5704    0.0341    0.5677 C   0  0  0  0  0  0  0  0  0  0  0  0
   -0.6727   -0.3639   -0.5990 C   0  0  0  0  0  0  0  0  0  0  0  0
    0.6727    0.3632   -0.5994 C   0  0  0  0  0  0  0  0  0  0  0  0
    1.5703   -0.0334    0.5678 C   0  0  0  0  0  0  0  0  0  0  0  0
   -2.5372   -0.4572    0.4840 H   0  0  0  0  0  0  0  0  0  0  0  0
   -1.1271   -0.2528    1.5175 H   0  0  0  0  0  0  0  0  0  0  0  0
   -1.7321    1.1101    0.5731 H   0  0  0  0  0  0  0  0  0  0  0  0
   -0.4985   -1.4420   -0.5707 H   0  0  0  0  0  0  0  0  0  0  0  0
   -1.1910   -0.1378   -1.5340 H   0  0  0  0  0  0  0  0  0  0  0  0
    0.4985    1.4413   -0.5726 H   0  0  0  0  0  0  0  0  0  0  0  0
    1.1910    0.1359   -1.5341 H   0  0  0  0  0  0  0  0  0  0  0  0
    1.7324   -1.1093    0.5742 H   0  0  0  0  0  0  0  0  0  0  0  0
    2.5370    0.4583    0.4838 H   0  0  0  0  0  0  0  0  0  0  0  0
    1.1267    0.2542    1.5172 H   0  0  0  0  0  0  0  0  0  0  0  0
  1  2  1  0  0  0  0
  2  3  1  0  0  0  0
  3  4  1  0  0  0  0
  1  5  1  0  0  0  0
  1  6  1  0  0  0  0
  1  7  1  0  0  0  0
  2  8  1  0  0  0  0
  2  9  1  0  0  0  0
  3 10  1  0  0  0  0
  3 11  1  0  0  0  0
  4 12  1  0  0  0  0
  4 13  1  0  0  0  0
  4 14  1  0  0  0  0
M  END
