47
Generated by generate_xyz.py
C  -6.043700000  -2.297000000  -0.325200000
C  -5.554400000  -0.886600000  -0.033300000
C  -4.206700000  -0.902800000   0.688800000
C  -3.721700000   0.489800000   1.102800000
C  -3.495300000   1.481400000  -0.042800000
C  -2.513900000   1.027900000  -1.128200000
C  -1.111200000   0.645400000  -0.643000000
C  -0.364000000   1.801800000   0.026300000
C   1.037900000   1.416900000   0.512900000
C   2.004700000   1.079800000  -0.625300000
C   3.457300000   0.923200000  -0.161600000
C   3.663700000  -0.255700000   0.794800000
C   5.138800000  -0.490500000   1.141300000
C   5.821000000  -1.583600000   0.313300000
C   5.921500000  -1.277300000  -1.170900000
H  -7.006800000  -2.264100000  -0.844100000
H  -6.176200000  -2.866300000   0.600400000
H  -5.333100000  -2.834600000  -0.961200000
H  -5.473300000  -0.341900000  -0.979900000
H  -6.299800000  -0.367400000   0.580000000
H  -3.454500000  -1.393800000   0.061000000
H  -4.295200000  -1.513600000   1.596200000
H  -4.452400000   0.926500000   1.795300000
H  -2.794100000   0.380100000   1.677000000
H  -4.456200000   1.710300000  -0.519300000
H  -3.151200000   2.431000000   0.384200000
H  -2.940400000   0.173200000  -1.666800000
H  -2.424000000   1.833300000  -1.868200000
H  -1.168100000  -0.207200000   0.042800000
H  -0.545600000   0.301800000  -1.516600000
H  -0.293700000   2.648900000  -0.666500000
H  -0.931000000   2.150300000   0.896800000
H   0.956800000   0.569900000   1.203600000
H   1.442000000   2.259200000   1.087800000
H   1.970000000   1.879700000  -1.375100000
H   1.690700000   0.158300000  -1.128400000
H   4.083000000   0.799700000  -1.051200000
H   3.787700000   1.850100000   0.323500000
H   3.214900000  -1.168000000   0.385000000
H   3.133300000  -0.036800000   1.729500000
H   5.707900000   0.444300000   1.074200000
H   5.191200000  -0.806800000   2.191300000
H   5.293000000  -2.534700000   0.450600000
H   6.834300000  -1.729600000   0.707000000
H   6.395400000  -0.305900000  -1.342500000
H   6.525700000  -2.041100000  -1.671300000
H   4.935800000  -1.277500000  -1.645000000
