  50
 
 C          5.2134050532        2.3929340595        1.3713144278
 C          4.7519523003        1.1257542450        0.6677512729
 C          4.7515266989        1.2640809235       -0.8552190968
 C          4.4261827788       -0.0283529705       -1.6148190512
 C          3.0186625211       -0.5936540160       -1.3340052432
 C          2.9819043571       -1.6179217424       -0.1965053948
 C          1.5820502118       -2.1677752826        0.0895631329
 C          0.6095673662       -1.1153367928        0.6236141667
 C         -0.7504472222       -1.7037396195        0.9985142362
 C         -1.7345037003       -0.6693182072        1.5515698064
 C         -2.1102097616        0.4351422600        0.5585617439
 C         -2.7498347480       -0.0764001244       -0.7364257567
 C         -4.0343596930       -0.8827211990       -0.5274049356
 C         -5.1669637015       -0.1460361984        0.2010622108
 C         -5.7770612248        1.0373003163       -0.5768475595
 C         -5.0691873696        2.3668733203       -0.3519698961
 H          5.2087674170        2.2839892900        2.4587645774
 H          4.5690478447        3.2391818355        1.1235328371
 H          6.2285696392        2.6637458918        1.0734409771
 H          5.3913343057        0.2802639926        0.9557552298
 H          3.7442256834        0.8607565302        1.0125911772
 H          4.0392862329        2.0470573090       -1.1450972773
 H          5.7319309875        1.6423420705       -1.1750371554
 H          5.1765016394       -0.7933468974       -1.3792074168
 H          4.5414324607        0.1549839936       -2.6929307851
 H          2.6126156306       -1.0677145342       -2.2382822364
 H          2.3334443009        0.2355750487       -1.1226625835
 H          3.3902985217       -1.1801298587        0.7203305404
 H          3.6644757487       -2.4430041905       -0.4410002596
 H          1.1689505813       -2.6178827159       -0.8217842196
 H          1.6456593263       -2.9921790655        0.8124084778
 H          1.0479535714       -0.6161712383        1.4968172099
 H          0.4768446531       -0.3231461131       -0.1216525662
 H         -0.6010004238       -2.5067920032        1.7328159863
 H         -1.1848559446       -2.2029978475        0.1242060915
 H         -2.6475923913       -1.1741934065        1.8928778112
 H         -1.3058243281       -0.2199224675        2.4574113140
 H         -1.2177578605        1.0279984338        0.3195400495
 H         -2.7904046181        1.1464335719        1.0440724980
 H         -2.9525933912        0.7617038522       -1.4141425768
 H         -2.0177804622       -0.6886796984       -1.2796108621
 H         -3.7875848346       -1.8014552366        0.0212397262
 H         -4.4097797011       -1.2330026050       -1.4984391739
 H         -4.8205012510        0.2022361802        1.1811714908
 H         -5.9610574477       -0.8714192445        0.4322924082
 H         -5.8002718918        0.7929147653       -1.6475224326
 H         -6.8346551142        1.1521272145       -0.2951491376
 H         -4.0344456012        2.3465326918       -0.6938865574
 H         -5.0518015511        2.6300540229        0.7080600926
 H         -5.5630202431        3.1861391618       -0.8809131580
          50
         -7.28235208
 C          0.8483229130       -3.4775745367       -1.0333182106
 C          1.5221094252       -2.6117314735        0.0195140053
 C          3.0214045980       -2.4431897485       -0.2303039019
 C          3.7347555734       -1.6020680672        0.8330192300
 C          3.2568994769       -0.1456076246        0.9164673188
 C          3.3288110923        0.5988974848       -0.4198172990
 C          3.2064194472        2.1208997356       -0.2927736413
 C          1.9315876805        2.6067728667        0.3989758570
 C          0.6394833610        2.2115564432       -0.3198062918
 C         -0.6000127618        2.8314353782        0.3275173143
 C         -1.9162232119        2.4365371836       -0.3490760118
 C         -2.2522877214        0.9532510747       -0.1945534739
 C         -3.6054506998        0.5755930303       -0.8016416415
 C         -3.8537920567       -0.9352562348       -0.8284620941
 C         -3.8818228584       -1.5975467471        0.5543622113
 C         -5.0844259021       -1.1869179897        1.3964689279
 H         -0.2191975749       -3.6096016534       -0.8448198336
 H          1.2963363652       -4.4705173743       -1.0709207537
 H          0.9528392290       -3.0388641707       -2.0253681261
 H          1.0400052346       -1.6272262153        0.0550692198
 H          1.3677764477       -3.0383609409        1.0188564931
 H          3.4846535678       -3.4376851250       -0.2930537062
 H          3.1794714947       -2.0021722715       -1.2225656347
 H          4.8155243611       -1.6076093720        0.6362707558
 H          3.6203421013       -2.0878893357        1.8111526962
 H          3.8535371041        0.3964957525        1.6626900310
 H          2.2303345632       -0.1124610805        1.3018790907
 H          2.5532280482        0.2166456344       -1.0948394596
 H          4.2783699699        0.3497023566       -0.9122328064
 H          4.0822493334        2.5009505371        0.2510707232
 H          3.2688458734        2.5747477693       -1.2904317050
 H          1.9047245510        2.2250491423        1.4270121308
 H          1.9591072765        3.6985787945        0.5081734799
 H          0.5460732714        1.1205137499       -0.3406007993
 H          0.6911705395        2.5155032024       -1.3714874186
 H         -0.6356348630        2.5514400857        1.3873853837
 H         -0.4911200603        3.9244595578        0.3250728141
 H         -1.8712464756        2.6918897654       -1.4151871460
 H         -2.7429557251        3.0369987523        0.0547870867
 H         -1.4655887061        0.3447556671       -0.6598600224
 H         -2.2329160691        0.6839824253        0.8700095511
 H         -3.6622453224        0.9793548758       -1.8206522342
 H         -4.4083564671        1.0816993596       -0.2540884483
 H         -3.0793929106       -1.4085320269       -1.4465595794
 H         -4.8003894626       -1.1448138565       -1.3433217687
 H         -3.8735290247       -2.6922559295        0.4370543356
 H         -2.9516654610       -1.3688402007        1.0900728891
 H         -5.0950250660       -0.1123028604        1.5891300704
 H         -5.0995833005       -1.6907869503        2.3659037932
 H         -6.0204911583       -1.4356001824        0.8935834598
