 xtb: 6.6.1 (8d0f1dd)
          04232412103D

 32 31  0     0  0            999 V2000
    4.9094    1.3294   -0.0759 C   0  0  0  0  0  0  0  0  0  0  0  0
    4.1489    0.0518    0.2573 C   0  0  0  0  0  0  0  0  0  0  0  0
    2.6959    0.1205   -0.2064 C   0  0  0  0  0  0  0  0  0  0  0  0
    1.9265   -1.1544    0.1319 C   0  0  0  0  0  0  0  0  0  0  0  0
    0.4988   -1.1619   -0.4151 C   0  0  0  0  0  0  0  0  0  0  0  0
   -0.4205   -0.1570    0.2755 C   0  0  0  0  0  0  0  0  0  0  0  0
   -1.8466   -0.2276   -0.2653 C   0  0  0  0  0  0  0  0  0  0  0  0
   -2.7691    0.7666    0.4368 C   0  0  0  0  0  0  0  0  0  0  0  0
   -4.1710    0.8271   -0.1700 C   0  0  0  0  0  0  0  0  0  0  0  0
   -4.9675   -0.4571    0.0289 C   0  0  0  0  0  0  0  0  0  0  0  0
    5.9409    1.2626    0.2625 H   0  0  0  0  0  0  0  0  0  0  0  0
    4.9113    1.5025   -1.1501 H   0  0  0  0  0  0  0  0  0  0  0  0
    4.4448    2.1866    0.4068 H   0  0  0  0  0  0  0  0  0  0  0  0
    4.6413   -0.7988   -0.2201 H   0  0  0  0  0  0  0  0  0  0  0  0
    4.1748   -0.1154    1.3367 H   0  0  0  0  0  0  0  0  0  0  0  0
    2.2157    0.9788    0.2667 H   0  0  0  0  0  0  0  0  0  0  0  0
    2.6709    0.2789   -1.2874 H   0  0  0  0  0  0  0  0  0  0  0  0
    2.4658   -2.0084   -0.2864 H   0  0  0  0  0  0  0  0  0  0  0  0
    1.8983   -1.2835    1.2166 H   0  0  0  0  0  0  0  0  0  0  0  0
    0.0795   -2.1634   -0.2875 H   0  0  0  0  0  0  0  0  0  0  0  0
    0.5237   -0.9508   -1.4870 H   0  0  0  0  0  0  0  0  0  0  0  0
   -0.0370    0.8545    0.1305 H   0  0  0  0  0  0  0  0  0  0  0  0
   -0.4309   -0.3579    1.3497 H   0  0  0  0  0  0  0  0  0  0  0  0
   -1.8351   -0.0129   -1.3369 H   0  0  0  0  0  0  0  0  0  0  0  0
   -2.2269   -1.2420   -0.1333 H   0  0  0  0  0  0  0  0  0  0  0  0
   -2.3205    1.7618    0.3775 H   0  0  0  0  0  0  0  0  0  0  0  0
   -2.8456    0.5033    1.4946 H   0  0  0  0  0  0  0  0  0  0  0  0
   -4.7149    1.6542    0.2930 H   0  0  0  0  0  0  0  0  0  0  0  0
   -4.0912    1.0423   -1.2382 H   0  0  0  0  0  0  0  0  0  0  0  0
   -4.5097   -1.2866   -0.5034 H   0  0  0  0  0  0  0  0  0  0  0  0
   -5.0200   -0.7118    1.0854 H   0  0  0  0  0  0  0  0  0  0  0  0
   -5.9817   -0.3341   -0.3446 H   0  0  0  0  0  0  0  0  0  0  0  0
  1  2  1  0  0  0  0
  2  3  1  0  0  0  0
  3  4  1  0  0  0  0
  4  5  1  0  0  0  0
  5  6  1  0  0  0  0
  6  7  1  0  0  0  0
  7  8  1  0  0  0  0
  8  9  1  0  0  0  0
  9 10  1  0  0  0  0
  1 11  1  0  0  0  0
  1 12  1  0  0  0  0
  1 13  1  0  0  0  0
  2 14  1  0  0  0  0
  2 15  1  0  0  0  0
  3 16  1  0  0  0  0
  3 17  1  0  0  0  0
  4 18  1  0  0  0  0
  4 19  1  0  0  0  0
  5 20  1  0  0  0  0
  5 21  1  0  0  0  0
  6 22  1  0  0  0  0
  6 23  1  0  0  0  0
  7 24  1  0  0  0  0
  7 25  1  0  0  0  0
  8 26  1  0  0  0  0
  8 27  1  0  0  0  0
  9 28  1  0  0  0  0
  9 29  1  0  0  0  0
 10 30  1  0  0  0  0
 10 31  1  0  0  0  0
 10 32  1  0  0  0  0
M  END
