  20
 
 C          3.1983529308        0.2170475866        0.0000000000
 C          1.8822363259       -0.5448030957        0.0000000000
 C          0.6635283599        0.3798007776        0.0000000000
 C         -0.6635218888       -0.3797768165        0.0000000000
 C         -1.8822447489        0.5448091736        0.0000000000
 C         -3.1983621082       -0.2170475263        0.0000000000
 H          3.2827305571        0.8608379903       -0.8784242379
 H          4.0621578835       -0.4526246126        0.0000000000
 H          3.2827305571        0.8608379903        0.8784242379
 H          1.8315783983       -1.2124825483       -0.8705501462
 H          1.8315783983       -1.2124825483        0.8705501462
 H          0.7069983815        1.0467947302       -0.8701503204
 H          0.7069983815        1.0467947302        0.8701503204
 H         -0.7069874891       -1.0467720437        0.8701488116
 H         -0.7069874891       -1.0467720437       -0.8701488116
 H         -1.8315883720        1.2124703018        0.8705639434
 H         -1.8315883720        1.2124703018       -0.8705639434
 H         -3.2827112414       -0.8608500834        0.8784187119
 H         -4.0621872231        0.4525978194        0.0000000000
 H         -3.2827112414       -0.8608500834       -0.8784187119
          20
         -2.84676520
 C          3.1948467310        0.2155260611       -0.0795591051
 C          1.8843527974       -0.5419320260        0.0560479088
 C          0.6620522277        0.3835773996        0.0548489502
 C         -0.6617966631       -0.3780940939        0.0059212475
 C         -1.8831784627        0.5427660459        0.0290418956
 C         -3.1964920236       -0.2210102768       -0.0553240547
 H          3.2504526960        0.7400252185       -1.0349462458
 H          4.0577097074       -0.4498249438       -0.0194481945
 H          3.3027890700        0.9655522747        0.7070816920
 H          1.7872652868       -1.2729541487       -0.7597972412
 H          1.8862992485       -1.1363553584        0.9808287054
 H          0.7194440133        1.0686906728       -0.8012475230
 H          0.6867134527        1.0319780487        0.9409160136
 H         -0.7125649194       -1.0839278636        0.8451941410
 H         -0.6919879077       -1.0052797851       -0.8945794946
 H         -1.8588399663        1.1556922104        0.9406391465
 H         -1.8107752760        1.2600398774       -0.8005449064
 H         -3.2982341060       -0.9197700573        0.7814304578
 H         -4.0669689927        0.4452080411       -0.0392568175
 H         -3.2487354961       -0.8090022377       -0.9770791905
