17
Generated by generate_xyz.py
C  -2.119400000  -0.610300000   0.173200000
C  -1.388100000   0.648200000  -0.267500000
C   0.053200000   0.726900000   0.240400000
C   0.961600000  -0.355100000  -0.344900000
C   2.402900000  -0.172300000   0.106000000
H  -2.093800000  -0.719100000   1.262000000
H  -1.681800000  -1.506900000  -0.275300000
H  -3.168100000  -0.563300000  -0.137700000
H  -1.936900000   1.519500000   0.109700000
H  -1.402600000   0.714400000  -1.361600000
H   0.061100000   0.664700000   1.335500000
H   0.455300000   1.713300000  -0.022400000
H   0.921100000  -0.323900000  -1.439700000
H   0.620600000  -1.348200000  -0.033400000
H   3.035600000  -0.957100000  -0.320300000
H   2.482500000  -0.226300000   1.196400000
H   2.796700000   0.795600000  -0.220300000
