 xtb: 6.6.1 (8d0f1dd)
          04202410583D

 23 22  0     0  0            999 V2000
   -3.6991   -0.0288   -0.1811 C   0  0  0  0  0  0  0  0  0  0  0  0
   -2.3343   -0.5313    0.2731 C   0  0  0  0  0  0  0  0  0  0  0  0
   -1.2083    0.4002   -0.1691 C   0  0  0  0  0  0  0  0  0  0  0  0
    0.1628   -0.1042    0.2744 C   0  0  0  0  0  0  0  0  0  0  0  0
    1.2861    0.8212   -0.1879 C   0  0  0  0  0  0  0  0  0  0  0  0
    2.6663    0.3994    0.3174 C   0  0  0  0  0  0  0  0  0  0  0  0
    3.1551   -0.9088   -0.2933 C   0  0  0  0  0  0  0  0  0  0  0  0
   -3.9011    0.9558    0.2353 H   0  0  0  0  0  0  0  0  0  0  0  0
   -3.7360    0.0457   -1.2660 H   0  0  0  0  0  0  0  0  0  0  0  0
   -4.4854   -0.7066    0.1432 H   0  0  0  0  0  0  0  0  0  0  0  0
   -2.3234   -0.6181    1.3622 H   0  0  0  0  0  0  0  0  0  0  0  0
   -2.1597   -1.5281   -0.1389 H   0  0  0  0  0  0  0  0  0  0  0  0
   -1.2239    0.4916   -1.2580 H   0  0  0  0  0  0  0  0  0  0  0  0
   -1.3804    1.3960    0.2470 H   0  0  0  0  0  0  0  0  0  0  0  0
    0.3185   -1.1052   -0.1316 H   0  0  0  0  0  0  0  0  0  0  0  0
    0.1841   -0.1801    1.3645 H   0  0  0  0  0  0  0  0  0  0  0  0
    1.0762    1.8321    0.1712 H   0  0  0  0  0  0  0  0  0  0  0  0
    1.2985    0.8566   -1.2800 H   0  0  0  0  0  0  0  0  0  0  0  0
    3.3817    1.1893    0.0751 H   0  0  0  0  0  0  0  0  0  0  0  0
    2.6374    0.3034    1.4053 H   0  0  0  0  0  0  0  0  0  0  0  0
    3.1479   -0.8472   -1.3796 H   0  0  0  0  0  0  0  0  0  0  0  0
    2.5247   -1.7409    0.0088 H   0  0  0  0  0  0  0  0  0  0  0  0
    4.1717   -1.1203    0.0308 H   0  0  0  0  0  0  0  0  0  0  0  0
  1  2  1  0  0  0  0
  2  3  1  0  0  0  0
  3  4  1  0  0  0  0
  4  5  1  0  0  0  0
  5  6  1  0  0  0  0
  6  7  1  0  0  0  0
  1  8  1  0  0  0  0
  1  9  1  0  0  0  0
  1 10  1  0  0  0  0
  2 11  1  0  0  0  0
  2 12  1  0  0  0  0
  3 13  1  0  0  0  0
  3 14  1  0  0  0  0
  4 15  1  0  0  0  0
  4 16  1  0  0  0  0
  5 17  1  0  0  0  0
  5 18  1  0  0  0  0
  6 19  1  0  0  0  0
  6 20  1  0  0  0  0
  7 21  1  0  0  0  0
  7 22  1  0  0  0  0
  7 23  1  0  0  0  0
M  END
