29
Generated by generate_xyz.py
C  -4.576000000  -0.319100000  -0.144000000
C  -3.066300000  -0.504900000  -0.161200000
C  -2.339600000   0.840400000  -0.184100000
C  -0.818800000   0.707500000  -0.313300000
C  -0.165400000   0.035500000   0.897200000
C   1.366000000   0.100400000   0.871000000
C   1.983500000  -0.679600000  -0.292700000
C   3.507300000  -0.793900000  -0.200500000
C   4.223600000   0.542600000  -0.317600000
H  -5.077200000  -1.291900000  -0.124100000
H  -4.915600000   0.219400000  -1.034500000
H  -4.891600000   0.244100000   0.740100000
H  -2.787000000  -1.094800000  -1.041700000
H  -2.774600000  -1.080400000   0.723800000
H  -2.704300000   1.430300000  -1.034300000
H  -2.583800000   1.409200000   0.721400000
H  -0.397400000   1.712800000  -0.436800000
H  -0.584400000   0.149900000  -1.227200000
H  -0.478000000  -1.012800000   0.962300000
H  -0.512700000   0.528600000   1.813500000
H   1.741500000  -0.308100000   1.817300000
H   1.679700000   1.149800000   0.831300000
H   1.716900000  -0.209400000  -1.246100000
H   1.564300000  -1.693100000  -0.309100000
H   3.789200000  -1.277500000   0.742000000
H   3.855900000  -1.448200000  -1.008500000
H   5.307100000   0.387200000  -0.339200000
H   3.999700000   1.193500000   0.532600000
H   3.937800000   1.062600000  -1.237300000
