 xtb: 6.6.1 (8d0f1dd)
          04232412103D

 23 22  0     0  0            999 V2000
   -3.0819    0.9702    0.1282 C   0  0  0  0  0  0  0  0  0  0  0  0
   -1.8516    0.2868   -0.4567 C   0  0  0  0  0  0  0  0  0  0  0  0
   -1.1550   -0.5957    0.5766 C   0  0  0  0  0  0  0  0  0  0  0  0
    0.0002   -1.4167    0.0009 C   0  0  0  0  0  0  0  0  0  0  0  0
    1.1544   -0.5953   -0.5760 C   0  0  0  0  0  0  0  0  0  0  0  0
    1.8518    0.2876    0.4565 C   0  0  0  0  0  0  0  0  0  0  0  0
    3.0804    0.9725   -0.1303 C   0  0  0  0  0  0  0  0  0  0  0  0
   -3.8011    0.2316    0.4761 H   0  0  0  0  0  0  0  0  0  0  0  0
   -2.8037    1.5983    0.9721 H   0  0  0  0  0  0  0  0  0  0  0  0
   -3.5660    1.5948   -0.6191 H   0  0  0  0  0  0  0  0  0  0  0  0
   -2.1485   -0.3256   -1.3116 H   0  0  0  0  0  0  0  0  0  0  0  0
   -1.1604    1.0502   -0.8171 H   0  0  0  0  0  0  0  0  0  0  0  0
   -0.7940    0.0249    1.3986 H   0  0  0  0  0  0  0  0  0  0  0  0
   -1.8893   -1.2900    0.9937 H   0  0  0  0  0  0  0  0  0  0  0  0
   -0.3911   -2.0642   -0.7882 H   0  0  0  0  0  0  0  0  0  0  0  0
    0.3922   -2.0626    0.7911 H   0  0  0  0  0  0  0  0  0  0  0  0
    0.7924    0.0250   -1.3977 H   0  0  0  0  0  0  0  0  0  0  0  0
    1.8887   -1.2894   -0.9937 H   0  0  0  0  0  0  0  0  0  0  0  0
    1.1604    1.0502    0.8183 H   0  0  0  0  0  0  0  0  0  0  0  0
    2.1508   -0.3247    1.3106 H   0  0  0  0  0  0  0  0  0  0  0  0
    2.7997    1.6029   -0.9716 H   0  0  0  0  0  0  0  0  0  0  0  0
    3.7985    0.2347   -0.4823 H   0  0  0  0  0  0  0  0  0  0  0  0
    3.5669    1.5950    0.6173 H   0  0  0  0  0  0  0  0  0  0  0  0
  1  2  1  0  0  0  0
  2  3  1  0  0  0  0
  3  4  1  0  0  0  0
  4  5  1  0  0  0  0
  5  6  1  0  0  0  0
  6  7  1  0  0  0  0
  1  8  1  0  0  0  0
  1  9  1  0  0  0  0
  1 10  1  0  0  0  0
  2 11  1  0  0  0  0
  2 12  1  0  0  0  0
  3 13  1  0  0  0  0
  3 14  1  0  0  0  0
  4 15  1  0  0  0  0
  4 16  1  0  0  0  0
  5 17  1  0  0  0  0
  5 18  1  0  0  0  0
  6 19  1  0  0  0  0
  6 20  1  0  0  0  0
  7 21  1  0  0  0  0
  7 22  1  0  0  0  0
  7 23  1  0  0  0  0
M  END
