44
Generated by generate_xyz.py
C   5.907500000   2.166100000   0.247600000
C   5.578600000   0.686200000   0.363300000
C   4.289800000   0.338700000  -0.383000000
C   3.962200000  -1.150500000  -0.258400000
C   2.746200000  -1.579900000  -1.085100000
C   1.427000000  -0.870300000  -0.760400000
C   0.966000000  -1.074000000   0.684900000
C  -0.356400000  -0.369500000   1.005700000
C  -1.559400000  -0.963400000   0.269300000
C  -2.865300000  -0.301500000   0.718300000
C  -4.069700000  -0.898200000  -0.015700000
C  -5.401300000  -0.265500000   0.403100000
C  -5.896800000   0.851200000  -0.520600000
C  -5.000700000   2.076500000  -0.563500000
H   6.045200000   2.456700000  -0.798700000
H   5.107200000   2.780200000   0.672700000
H   6.832300000   2.392100000   0.787600000
H   5.478200000   0.421600000   1.422400000
H   6.412800000   0.100400000  -0.040200000
H   3.468600000   0.939200000   0.024100000
H   4.395200000   0.605000000  -1.441600000
H   3.812700000  -1.412000000   0.795400000
H   4.825300000  -1.736700000  -0.598700000
H   2.606900000  -2.661000000  -0.959200000
H   2.969500000  -1.421400000  -2.147700000
H   0.668000000  -1.262900000  -1.446600000
H   1.512600000   0.200500000  -0.976900000
H   1.724300000  -0.677800000   1.369600000
H   0.873600000  -2.145700000   0.898100000
H  -0.269700000   0.699100000   0.774300000
H  -0.528100000  -0.445100000   2.086800000
H  -1.610500000  -2.042300000   0.458600000
H  -1.444300000  -0.826800000  -0.811500000
H  -2.992600000  -0.441700000   1.798800000
H  -2.802400000   0.776600000   0.542000000
H  -4.111400000  -1.969000000   0.222200000
H  -3.934000000  -0.825300000  -1.101200000
H  -6.165800000  -1.053100000   0.389000000
H  -5.352400000   0.095100000   1.437400000
H  -6.023700000   0.460900000  -1.537300000
H  -6.891900000   1.161200000  -0.179000000
H  -5.486400000   2.876400000  -1.131900000
H  -4.796800000   2.453100000   0.443500000
H  -4.049900000   1.856500000  -1.057300000
