 xtb: 6.6.1 (8d0f1dd)
          04202410583D

 29 28  0     0  0            999 V2000
   -3.4516    1.4924    0.8198 C   0  0  0  0  0  0  0  0  0  0  0  0
   -2.6037    0.6780   -0.1501 C   0  0  0  0  0  0  0  0  0  0  0  0
   -2.1122   -0.6198    0.4866 C   0  0  0  0  0  0  0  0  0  0  0  0
   -1.3829   -1.5438   -0.4904 C   0  0  0  0  0  0  0  0  0  0  0  0
   -0.1239   -0.9524   -1.1271 C   0  0  0  0  0  0  0  0  0  0  0  0
    0.9584   -0.5928   -0.1118 C   0  0  0  0  0  0  0  0  0  0  0  0
    2.2423   -0.1318   -0.7983 C   0  0  0  0  0  0  0  0  0  0  0  0
    3.3828    0.1537    0.1792 C   0  0  0  0  0  0  0  0  0  0  0  0
    3.1164    1.3525    1.0827 C   0  0  0  0  0  0  0  0  0  0  0  0
   -3.7831    2.4186    0.3558 H   0  0  0  0  0  0  0  0  0  0  0  0
   -2.8784    1.7413    1.7105 H   0  0  0  0  0  0  0  0  0  0  0  0
   -4.3302    0.9290    1.1268 H   0  0  0  0  0  0  0  0  0  0  0  0
   -1.7510    1.2805   -0.4668 H   0  0  0  0  0  0  0  0  0  0  0  0
   -3.1944    0.4420   -1.0384 H   0  0  0  0  0  0  0  0  0  0  0  0
   -1.4611   -0.3851    1.3306 H   0  0  0  0  0  0  0  0  0  0  0  0
   -2.9743   -1.1616    0.8851 H   0  0  0  0  0  0  0  0  0  0  0  0
   -2.0750   -1.8230   -1.2892 H   0  0  0  0  0  0  0  0  0  0  0  0
   -1.1081   -2.4591    0.0404 H   0  0  0  0  0  0  0  0  0  0  0  0
   -0.3848   -0.0663   -1.7086 H   0  0  0  0  0  0  0  0  0  0  0  0
    0.2804   -1.6896   -1.8263 H   0  0  0  0  0  0  0  0  0  0  0  0
    1.1753   -1.4666    0.5079 H   0  0  0  0  0  0  0  0  0  0  0  0
    0.5937    0.2004    0.5403 H   0  0  0  0  0  0  0  0  0  0  0  0
    2.0357    0.7681   -1.3831 H   0  0  0  0  0  0  0  0  0  0  0  0
    2.5668   -0.9087   -1.4957 H   0  0  0  0  0  0  0  0  0  0  0  0
    3.5586   -0.7316    0.7947 H   0  0  0  0  0  0  0  0  0  0  0  0
    4.2935    0.3420   -0.3948 H   0  0  0  0  0  0  0  0  0  0  0  0
    2.2840    1.1591    1.7542 H   0  0  0  0  0  0  0  0  0  0  0  0
    2.8825    2.2328    0.4875 H   0  0  0  0  0  0  0  0  0  0  0  0
    3.9936    1.5713    1.6876 H   0  0  0  0  0  0  0  0  0  0  0  0
  1  2  1  0  0  0  0
  2  3  1  0  0  0  0
  3  4  1  0  0  0  0
  4  5  1  0  0  0  0
  5  6  1  0  0  0  0
  6  7  1  0  0  0  0
  7  8  1  0  0  0  0
  8  9  1  0  0  0  0
  1 10  1  0  0  0  0
  1 11  1  0  0  0  0
  1 12  1  0  0  0  0
  2 13  1  0  0  0  0
  2 14  1  0  0  0  0
  3 15  1  0  0  0  0
  3 16  1  0  0  0  0
  4 17  1  0  0  0  0
  4 18  1  0  0  0  0
  5 19  1  0  0  0  0
  5 20  1  0  0  0  0
  6 21  1  0  0  0  0
  6 22  1  0  0  0  0
  7 23  1  0  0  0  0
  7 24  1  0  0  0  0
  8 25  1  0  0  0  0
  8 26  1  0  0  0  0
  9 27  1  0  0  0  0
  9 28  1  0  0  0  0
  9 29  1  0  0  0  0
M  END
