 xtb: 6.6.1 (8d0f1dd)
          04172411323D

 14 13  0     0  0            999 V2000
   -1.9375   -0.1349   -0.0004 C   0  0  0  0  0  0  0  0  0  0  0  0
   -0.5611    0.5176    0.0005 C   0  0  0  0  0  0  0  0  0  0  0  0
    0.5611   -0.5176    0.0005 C   0  0  0  0  0  0  0  0  0  0  0  0
    1.9375    0.1351   -0.0004 C   0  0  0  0  0  0  0  0  0  0  0  0
   -2.0627   -0.7607   -0.8817 H   0  0  0  0  0  0  0  0  0  0  0  0
   -2.0647   -0.7591    0.8817 H   0  0  0  0  0  0  0  0  0  0  0  0
   -2.7203    0.6202   -0.0020 H   0  0  0  0  0  0  0  0  0  0  0  0
   -0.4612    1.1555   -0.8809 H   0  0  0  0  0  0  0  0  0  0  0  0
   -0.4621    1.1547    0.8826 H   0  0  0  0  0  0  0  0  0  0  0  0
    0.4614   -1.1555   -0.8809 H   0  0  0  0  0  0  0  0  0  0  0  0
    0.4621   -1.1547    0.8826 H   0  0  0  0  0  0  0  0  0  0  0  0
    2.0638    0.7609    0.8806 H   0  0  0  0  0  0  0  0  0  0  0  0
    2.7203   -0.6200    0.0001 H   0  0  0  0  0  0  0  0  0  0  0  0
    2.0634    0.7591   -0.8827 H   0  0  0  0  0  0  0  0  0  0  0  0
  1  2  1  0  0  0  0
  2  3  1  0  0  0  0
  3  4  1  0  0  0  0
  1  5  1  0  0  0  0
  1  6  1  0  0  0  0
  1  7  1  0  0  0  0
  2  8  1  0  0  0  0
  2  9  1  0  0  0  0
  3 10  1  0  0  0  0
  3 11  1  0  0  0  0
  4 12  1  0  0  0  0
  4 13  1  0  0  0  0
  4 14  1  0  0  0  0
M  END
