 xtb: 6.6.1 (8d0f1dd)
          04232412103D

 53 52  0     0  0            999 V2000
    3.0601   -2.4923    0.4016 C   0  0  0  0  0  0  0  0  0  0  0  0
    2.2324   -3.4262   -0.4736 C   0  0  0  0  0  0  0  0  0  0  0  0
    0.9047   -2.8134   -0.9205 C   0  0  0  0  0  0  0  0  0  0  0  0
   -0.1022   -2.6513    0.2164 C   0  0  0  0  0  0  0  0  0  0  0  0
   -1.4363   -2.1043   -0.2861 C   0  0  0  0  0  0  0  0  0  0  0  0
   -2.4386   -1.9145    0.8507 C   0  0  0  0  0  0  0  0  0  0  0  0
   -3.7941   -1.3718    0.3906 C   0  0  0  0  0  0  0  0  0  0  0  0
   -3.7428    0.0285   -0.2246 C   0  0  0  0  0  0  0  0  0  0  0  0
   -3.3812    1.1167    0.7849 C   0  0  0  0  0  0  0  0  0  0  0  0
   -3.0841    2.4722    0.1396 C   0  0  0  0  0  0  0  0  0  0  0  0
   -1.8795    2.4836   -0.8059 C   0  0  0  0  0  0  0  0  0  0  0  0
   -0.5799    2.0199   -0.1512 C   0  0  0  0  0  0  0  0  0  0  0  0
    0.5911    2.0598   -1.1313 C   0  0  0  0  0  0  0  0  0  0  0  0
    1.8629    1.4165   -0.5760 C   0  0  0  0  0  0  0  0  0  0  0  0
    2.5362    2.2532    0.5099 C   0  0  0  0  0  0  0  0  0  0  0  0
    3.7654    1.5741    1.1158 C   0  0  0  0  0  0  0  0  0  0  0  0
    4.9248    1.4339    0.1362 C   0  0  0  0  0  0  0  0  0  0  0  0
    4.0117   -2.9548    0.6544 H   0  0  0  0  0  0  0  0  0  0  0  0
    3.2620   -1.5609   -0.1228 H   0  0  0  0  0  0  0  0  0  0  0  0
    2.5404   -2.2627    1.3285 H   0  0  0  0  0  0  0  0  0  0  0  0
    2.0353   -4.3538    0.0690 H   0  0  0  0  0  0  0  0  0  0  0  0
    2.8155   -3.6817   -1.3619 H   0  0  0  0  0  0  0  0  0  0  0  0
    0.4626   -3.4555   -1.6868 H   0  0  0  0  0  0  0  0  0  0  0  0
    1.0944   -1.8393   -1.3785 H   0  0  0  0  0  0  0  0  0  0  0  0
    0.2971   -1.9698    0.9703 H   0  0  0  0  0  0  0  0  0  0  0  0
   -0.2629   -3.6193    0.6977 H   0  0  0  0  0  0  0  0  0  0  0  0
   -1.2524   -1.1512   -0.7844 H   0  0  0  0  0  0  0  0  0  0  0  0
   -1.8557   -2.7893   -1.0272 H   0  0  0  0  0  0  0  0  0  0  0  0
   -2.6031   -2.8801    1.3362 H   0  0  0  0  0  0  0  0  0  0  0  0
   -2.0084   -1.2492    1.6018 H   0  0  0  0  0  0  0  0  0  0  0  0
   -4.2099   -2.0611   -0.3488 H   0  0  0  0  0  0  0  0  0  0  0  0
   -4.4737   -1.3583    1.2467 H   0  0  0  0  0  0  0  0  0  0  0  0
   -3.0242    0.0268   -1.0425 H   0  0  0  0  0  0  0  0  0  0  0  0
   -4.7209    0.2584   -0.6548 H   0  0  0  0  0  0  0  0  0  0  0  0
   -2.5155    0.8085    1.3697 H   0  0  0  0  0  0  0  0  0  0  0  0
   -4.2127    1.2398    1.4839 H   0  0  0  0  0  0  0  0  0  0  0  0
   -2.9088    3.1994    0.9369 H   0  0  0  0  0  0  0  0  0  0  0  0
   -3.9644    2.8019   -0.4182 H   0  0  0  0  0  0  0  0  0  0  0  0
   -2.0870    1.8563   -1.6753 H   0  0  0  0  0  0  0  0  0  0  0  0
   -1.7447    3.5039   -1.1748 H   0  0  0  0  0  0  0  0  0  0  0  0
   -0.3696    2.6535    0.7123 H   0  0  0  0  0  0  0  0  0  0  0  0
   -0.6932    0.9950    0.2041 H   0  0  0  0  0  0  0  0  0  0  0  0
    0.7997    3.0938   -1.4159 H   0  0  0  0  0  0  0  0  0  0  0  0
    0.2990    1.5237   -2.0389 H   0  0  0  0  0  0  0  0  0  0  0  0
    1.6164    0.4329   -0.1690 H   0  0  0  0  0  0  0  0  0  0  0  0
    2.5640    1.2707   -1.4002 H   0  0  0  0  0  0  0  0  0  0  0  0
    2.8278    3.2195    0.0910 H   0  0  0  0  0  0  0  0  0  0  0  0
    1.8196    2.4425    1.3115 H   0  0  0  0  0  0  0  0  0  0  0  0
    3.4841    0.5858    1.4870 H   0  0  0  0  0  0  0  0  0  0  0  0
    4.1010    2.1639    1.9725 H   0  0  0  0  0  0  0  0  0  0  0  0
    5.1990    2.4050   -0.2709 H   0  0  0  0  0  0  0  0  0  0  0  0
    5.7939    1.0150    0.6387 H   0  0  0  0  0  0  0  0  0  0  0  0
    4.6651    0.7765   -0.6895 H   0  0  0  0  0  0  0  0  0  0  0  0
  1  2  1  0  0  0  0
  2  3  1  0  0  0  0
  3  4  1  0  0  0  0
  4  5  1  0  0  0  0
  5  6  1  0  0  0  0
  6  7  1  0  0  0  0
  7  8  1  0  0  0  0
  8  9  1  0  0  0  0
  9 10  1  0  0  0  0
 10 11  1  0  0  0  0
 11 12  1  0  0  0  0
 12 13  1  0  0  0  0
 13 14  1  0  0  0  0
 14 15  1  0  0  0  0
 15 16  1  0  0  0  0
 16 17  1  0  0  0  0
  1 18  1  0  0  0  0
  1 19  1  0  0  0  0
  1 20  1  0  0  0  0
  2 21  1  0  0  0  0
  2 22  1  0  0  0  0
  3 23  1  0  0  0  0
  3 24  1  0  0  0  0
  4 25  1  0  0  0  0
  4 26  1  0  0  0  0
  5 27  1  0  0  0  0
  5 28  1  0  0  0  0
  6 29  1  0  0  0  0
  6 30  1  0  0  0  0
  7 31  1  0  0  0  0
  7 32  1  0  0  0  0
  8 33  1  0  0  0  0
  8 34  1  0  0  0  0
  9 35  1  0  0  0  0
  9 36  1  0  0  0  0
 10 37  1  0  0  0  0
 10 38  1  0  0  0  0
 11 39  1  0  0  0  0
 11 40  1  0  0  0  0
 12 41  1  0  0  0  0
 12 42  1  0  0  0  0
 13 43  1  0  0  0  0
 13 44  1  0  0  0  0
 14 45  1  0  0  0  0
 14 46  1  0  0  0  0
 15 47  1  0  0  0  0
 15 48  1  0  0  0  0
 16 49  1  0  0  0  0
 16 50  1  0  0  0  0
 17 51  1  0  0  0  0
 17 52  1  0  0  0  0
 17 53  1  0  0  0  0
M  END
