 xtb: 6.6.1 (8d0f1dd)
          04232412103D

 41 40  0     0  0            999 V2000
    7.0381   -0.6057    0.1281 C   0  0  0  0  0  0  0  0  0  0  0  0
    5.5930   -0.7818   -0.3212 C   0  0  0  0  0  0  0  0  0  0  0  0
    4.7008    0.3554    0.1707 C   0  0  0  0  0  0  0  0  0  0  0  0
    3.2499    0.1804   -0.2716 C   0  0  0  0  0  0  0  0  0  0  0  0
    2.3614    1.3177    0.2275 C   0  0  0  0  0  0  0  0  0  0  0  0
    0.9229    1.2333   -0.2841 C   0  0  0  0  0  0  0  0  0  0  0  0
    0.1342    0.0673    0.3080 C   0  0  0  0  0  0  0  0  0  0  0  0
   -1.3127    0.0565   -0.1801 C   0  0  0  0  0  0  0  0  0  0  0  0
   -2.1082   -1.1000    0.4218 C   0  0  0  0  0  0  0  0  0  0  0  0
   -3.5159   -1.2359   -0.1594 C   0  0  0  0  0  0  0  0  0  0  0  0
   -4.4405   -0.0782    0.2096 C   0  0  0  0  0  0  0  0  0  0  0  0
   -5.8592   -0.2937   -0.3123 C   0  0  0  0  0  0  0  0  0  0  0  0
   -6.7772    0.8689    0.0445 C   0  0  0  0  0  0  0  0  0  0  0  0
    7.6552   -1.4254   -0.2327 H   0  0  0  0  0  0  0  0  0  0  0  0
    7.0994   -0.5822    1.2141 H   0  0  0  0  0  0  0  0  0  0  0  0
    7.4464    0.3264   -0.2568 H   0  0  0  0  0  0  0  0  0  0  0  0
    5.5548   -0.8232   -1.4124 H   0  0  0  0  0  0  0  0  0  0  0  0
    5.2085   -1.7314    0.0586 H   0  0  0  0  0  0  0  0  0  0  0  0
    5.0842    1.3047   -0.2119 H   0  0  0  0  0  0  0  0  0  0  0  0
    4.7422    0.3994    1.2618 H   0  0  0  0  0  0  0  0  0  0  0  0
    2.8777   -0.7732    0.1070 H   0  0  0  0  0  0  0  0  0  0  0  0
    3.2081    0.1440   -1.3631 H   0  0  0  0  0  0  0  0  0  0  0  0
    2.7935    2.2667   -0.1008 H   0  0  0  0  0  0  0  0  0  0  0  0
    2.3559    1.3201    1.3202 H   0  0  0  0  0  0  0  0  0  0  0  0
    0.9334    1.1457   -1.3734 H   0  0  0  0  0  0  0  0  0  0  0  0
    0.4078    2.1647   -0.0347 H   0  0  0  0  0  0  0  0  0  0  0  0
    0.1468    0.1409    1.3983 H   0  0  0  0  0  0  0  0  0  0  0  0
    0.6080   -0.8766    0.0331 H   0  0  0  0  0  0  0  0  0  0  0  0
   -1.7834    1.0053    0.0835 H   0  0  0  0  0  0  0  0  0  0  0  0
   -1.3230   -0.0289   -1.2696 H   0  0  0  0  0  0  0  0  0  0  0  0
   -2.1755   -0.9680    1.5044 H   0  0  0  0  0  0  0  0  0  0  0  0
   -1.5647   -2.0305    0.2376 H   0  0  0  0  0  0  0  0  0  0  0  0
   -3.4493   -1.3117   -1.2476 H   0  0  0  0  0  0  0  0  0  0  0  0
   -3.9574   -2.1663    0.2078 H   0  0  0  0  0  0  0  0  0  0  0  0
   -4.0499    0.8526   -0.2056 H   0  0  0  0  0  0  0  0  0  0  0  0
   -4.4690    0.0276    1.2969 H   0  0  0  0  0  0  0  0  0  0  0  0
   -6.2633   -1.2176    0.1086 H   0  0  0  0  0  0  0  0  0  0  0  0
   -5.8287   -0.4117   -1.3981 H   0  0  0  0  0  0  0  0  0  0  0  0
   -6.8367    0.9904    1.1241 H   0  0  0  0  0  0  0  0  0  0  0  0
   -6.4016    1.7963   -0.3830 H   0  0  0  0  0  0  0  0  0  0  0  0
   -7.7811    0.6973   -0.3372 H   0  0  0  0  0  0  0  0  0  0  0  0
  1  2  1  0  0  0  0
  2  3  1  0  0  0  0
  3  4  1  0  0  0  0
  4  5  1  0  0  0  0
  5  6  1  0  0  0  0
  6  7  1  0  0  0  0
  7  8  1  0  0  0  0
  8  9  1  0  0  0  0
  9 10  1  0  0  0  0
 10 11  1  0  0  0  0
 11 12  1  0  0  0  0
 12 13  1  0  0  0  0
  1 14  1  0  0  0  0
  1 15  1  0  0  0  0
  1 16  1  0  0  0  0
  2 17  1  0  0  0  0
  2 18  1  0  0  0  0
  3 19  1  0  0  0  0
  3 20  1  0  0  0  0
  4 21  1  0  0  0  0
  4 22  1  0  0  0  0
  5 23  1  0  0  0  0
  5 24  1  0  0  0  0
  6 25  1  0  0  0  0
  6 26  1  0  0  0  0
  7 27  1  0  0  0  0
  7 28  1  0  0  0  0
  8 29  1  0  0  0  0
  8 30  1  0  0  0  0
  9 31  1  0  0  0  0
  9 32  1  0  0  0  0
 10 33  1  0  0  0  0
 10 34  1  0  0  0  0
 11 35  1  0  0  0  0
 11 36  1  0  0  0  0
 12 37  1  0  0  0  0
 12 38  1  0  0  0  0
 13 39  1  0  0  0  0
 13 40  1  0  0  0  0
 13 41  1  0  0  0  0
M  END
