  14
 
 C         -1.5515429909        0.5668323200       -0.1347875999
 C         -0.7021883060       -0.6149897363        0.3068635542
 C          0.7021882224       -0.6148105500       -0.3070758886
 C          1.5515177784        0.5669110646        0.1349310592
 H         -1.1195088096        1.5155858690        0.1897522915
 H         -1.6369113368        0.6071599172       -1.2229288506
 H         -2.5649412557        0.5180451018        0.2716741981
 H         -0.6180520013       -0.6260466793        1.4019917937
 H         -1.2168484393       -1.5527039896        0.0529238240
 H          0.6180028068       -0.6255444729       -1.4022055396
 H          1.2169700732       -1.5525615310       -0.0535271888
 H          2.5655564190        0.5173122500       -0.2698298966
 H          1.1205121581        1.5156762232       -0.1909559338
 H          1.6351718746        0.6079966784        1.2231733137
          14
         -1.95919933
 C         -1.9474449005       -0.1311275408        0.0075148864
 C         -0.5667865417        0.5120077278       -0.0101995623
 C          0.5675437778       -0.5122168626       -0.0089810509
 C          1.9479655259        0.1300267579        0.0086467762
 H         -2.1095856235       -0.7482590869       -0.8780617812
 H         -2.0692959291       -0.7697655179        0.8870428763
 H         -2.7509165925        0.6084185354        0.0390053193
 H         -0.4608966228        1.1751948552       -0.8801821428
 H         -0.4542199651        1.1785928907        0.8575222289
 H          0.4607948859       -1.1678621286       -0.8843354111
 H          0.4502054460       -1.1754651135        0.8585797839
 H          2.7427721957       -0.6081003380        0.0813722308
 H          2.1270617558        0.7090504809       -0.8979438954
 H          2.0488523578        0.8138055246        0.8529771934
