 xtb: 6.6.1 (8d0f1dd)
          04232412113D

 56 55  0     0  0            999 V2000
    5.5233   -6.4706   -1.4205 C   0  0  0  0  0  0  0  0  0  0  0  0
    4.1966   -7.2060   -1.5723 C   0  0  0  0  0  0  0  0  0  0  0  0
    3.4592   -7.3995   -0.2460 C   0  0  0  0  0  0  0  0  0  0  0  0
    3.0702   -6.1055    0.4710 C   0  0  0  0  0  0  0  0  0  0  0  0
    2.0849   -5.2461   -0.3172 C   0  0  0  0  0  0  0  0  0  0  0  0
    1.6531   -4.0106    0.4693 C   0  0  0  0  0  0  0  0  0  0  0  0
    0.6852   -3.1367   -0.3247 C   0  0  0  0  0  0  0  0  0  0  0  0
    0.3097   -1.8620    0.4268 C   0  0  0  0  0  0  0  0  0  0  0  0
   -0.6492   -0.9862   -0.3759 C   0  0  0  0  0  0  0  0  0  0  0  0
   -0.9767    0.3202    0.3428 C   0  0  0  0  0  0  0  0  0  0  0  0
   -1.9321    1.1950   -0.4654 C   0  0  0  0  0  0  0  0  0  0  0  0
   -2.2182    2.5252    0.2275 C   0  0  0  0  0  0  0  0  0  0  0  0
   -3.1711    3.3969   -0.5874 C   0  0  0  0  0  0  0  0  0  0  0  0
   -3.5236    4.7177    0.0983 C   0  0  0  0  0  0  0  0  0  0  0  0
   -2.3511    5.6932    0.1763 C   0  0  0  0  0  0  0  0  0  0  0  0
   -2.7682    7.0351    0.7735 C   0  0  0  0  0  0  0  0  0  0  0  0
   -1.6008    8.0155    0.8584 C   0  0  0  0  0  0  0  0  0  0  0  0
   -2.0243    9.3508    1.4582 C   0  0  0  0  0  0  0  0  0  0  0  0
    6.1440   -6.9575   -0.6713 H   0  0  0  0  0  0  0  0  0  0  0  0
    6.0638   -6.4681   -2.3645 H   0  0  0  0  0  0  0  0  0  0  0  0
    5.3660   -5.4381   -1.1198 H   0  0  0  0  0  0  0  0  0  0  0  0
    4.3875   -8.1935   -2.0001 H   0  0  0  0  0  0  0  0  0  0  0  0
    3.5594   -6.6667   -2.2750 H   0  0  0  0  0  0  0  0  0  0  0  0
    2.5535   -7.9818   -0.4339 H   0  0  0  0  0  0  0  0  0  0  0  0
    4.0949   -7.9867    0.4219 H   0  0  0  0  0  0  0  0  0  0  0  0
    3.9658   -5.5218    0.6897 H   0  0  0  0  0  0  0  0  0  0  0  0
    2.6151   -6.3704    1.4291 H   0  0  0  0  0  0  0  0  0  0  0  0
    1.2043   -5.8428   -0.5673 H   0  0  0  0  0  0  0  0  0  0  0  0
    2.5435   -4.9223   -1.2530 H   0  0  0  0  0  0  0  0  0  0  0  0
    2.5374   -3.4232    0.7287 H   0  0  0  0  0  0  0  0  0  0  0  0
    1.1787   -4.3202    1.4036 H   0  0  0  0  0  0  0  0  0  0  0  0
    1.1448   -2.8671   -1.2788 H   0  0  0  0  0  0  0  0  0  0  0  0
   -0.2199   -3.7074   -0.5455 H   0  0  0  0  0  0  0  0  0  0  0  0
    1.2173   -1.2944    0.6461 H   0  0  0  0  0  0  0  0  0  0  0  0
   -0.1521   -2.1257    1.3811 H   0  0  0  0  0  0  0  0  0  0  0  0
   -1.5732   -1.5384   -0.5627 H   0  0  0  0  0  0  0  0  0  0  0  0
   -0.2004   -0.7584   -1.3459 H   0  0  0  0  0  0  0  0  0  0  0  0
   -1.4238    0.0975    1.3144 H   0  0  0  0  0  0  0  0  0  0  0  0
   -0.0510    0.8716    0.5251 H   0  0  0  0  0  0  0  0  0  0  0  0
   -1.4970    1.3890   -1.4489 H   0  0  0  0  0  0  0  0  0  0  0  0
   -2.8702    0.6569   -0.6213 H   0  0  0  0  0  0  0  0  0  0  0  0
   -2.6561    2.3341    1.2101 H   0  0  0  0  0  0  0  0  0  0  0  0
   -1.2751    3.0524    0.3805 H   0  0  0  0  0  0  0  0  0  0  0  0
   -2.7247    3.6061   -1.5625 H   0  0  0  0  0  0  0  0  0  0  0  0
   -4.0931    2.8365   -0.7618 H   0  0  0  0  0  0  0  0  0  0  0  0
   -3.8918    4.5134    1.1065 H   0  0  0  0  0  0  0  0  0  0  0  0
   -4.3352    5.1937   -0.4579 H   0  0  0  0  0  0  0  0  0  0  0  0
   -1.9500    5.8547   -0.8272 H   0  0  0  0  0  0  0  0  0  0  0  0
   -1.5542    5.2669    0.7880 H   0  0  0  0  0  0  0  0  0  0  0  0
   -3.1755    6.8730    1.7745 H   0  0  0  0  0  0  0  0  0  0  0  0
   -3.5614    7.4727    0.1624 H   0  0  0  0  0  0  0  0  0  0  0  0
   -1.1947    8.1796   -0.1424 H   0  0  0  0  0  0  0  0  0  0  0  0
   -0.8071    7.5789    1.4692 H   0  0  0  0  0  0  0  0  0  0  0  0
   -2.8030    9.8102    0.8531 H   0  0  0  0  0  0  0  0  0  0  0  0
   -2.4129    9.2099    2.4646 H   0  0  0  0  0  0  0  0  0  0  0  0
   -1.1802   10.0346    1.5086 H   0  0  0  0  0  0  0  0  0  0  0  0
  1  2  1  0  0  0  0
  2  3  1  0  0  0  0
  3  4  1  0  0  0  0
  4  5  1  0  0  0  0
  5  6  1  0  0  0  0
  6  7  1  0  0  0  0
  7  8  1  0  0  0  0
  8  9  1  0  0  0  0
  9 10  1  0  0  0  0
 10 11  1  0  0  0  0
 11 12  1  0  0  0  0
 12 13  1  0  0  0  0
 13 14  1  0  0  0  0
 14 15  1  0  0  0  0
 15 16  1  0  0  0  0
 16 17  1  0  0  0  0
 17 18  1  0  0  0  0
  1 19  1  0  0  0  0
  1 20  1  0  0  0  0
  1 21  1  0  0  0  0
  2 22  1  0  0  0  0
  2 23  1  0  0  0  0
  3 24  1  0  0  0  0
  3 25  1  0  0  0  0
  4 26  1  0  0  0  0
  4 27  1  0  0  0  0
  5 28  1  0  0  0  0
  5 29  1  0  0  0  0
  6 30  1  0  0  0  0
  6 31  1  0  0  0  0
  7 32  1  0  0  0  0
  7 33  1  0  0  0  0
  8 34  1  0  0  0  0
  8 35  1  0  0  0  0
  9 36  1  0  0  0  0
  9 37  1  0  0  0  0
 10 38  1  0  0  0  0
 10 39  1  0  0  0  0
 11 40  1  0  0  0  0
 11 41  1  0  0  0  0
 12 42  1  0  0  0  0
 12 43  1  0  0  0  0
 13 44  1  0  0  0  0
 13 45  1  0  0  0  0
 14 46  1  0  0  0  0
 14 47  1  0  0  0  0
 15 48  1  0  0  0  0
 15 49  1  0  0  0  0
 16 50  1  0  0  0  0
 16 51  1  0  0  0  0
 17 52  1  0  0  0  0
 17 53  1  0  0  0  0
 18 54  1  0  0  0  0
 18 55  1  0  0  0  0
 18 56  1  0  0  0  0
M  END
