 xtb: 6.6.1 (8d0f1dd)
          04232412103D

 44 43  0     0  0            999 V2000
    6.9802    2.2248    0.2124 C   0  0  0  0  0  0  0  0  0  0  0  0
    6.3298    0.9271   -0.2513 C   0  0  0  0  0  0  0  0  0  0  0  0
    4.8804    0.8214    0.2159 C   0  0  0  0  0  0  0  0  0  0  0  0
    4.2099   -0.4659   -0.2577 C   0  0  0  0  0  0  0  0  0  0  0  0
    2.7632   -0.5614    0.2210 C   0  0  0  0  0  0  0  0  0  0  0  0
    2.0750   -1.8288   -0.2811 C   0  0  0  0  0  0  0  0  0  0  0  0
    0.6531   -1.9989    0.2558 C   0  0  0  0  0  0  0  0  0  0  0  0
   -0.3164   -0.9349   -0.2533 C   0  0  0  0  0  0  0  0  0  0  0  0
   -1.7425   -1.1756    0.2361 C   0  0  0  0  0  0  0  0  0  0  0  0
   -2.6972   -0.0855   -0.2448 C   0  0  0  0  0  0  0  0  0  0  0  0
   -4.1246   -0.3038    0.2499 C   0  0  0  0  0  0  0  0  0  0  0  0
   -5.0653    0.8059   -0.2130 C   0  0  0  0  0  0  0  0  0  0  0  0
   -6.4949    0.5932    0.2785 C   0  0  0  0  0  0  0  0  0  0  0  0
   -7.4226    1.7153   -0.1711 C   0  0  0  0  0  0  0  0  0  0  0  0
    6.9690    2.2899    1.2983 H   0  0  0  0  0  0  0  0  0  0  0  0
    8.0130    2.2791   -0.1242 H   0  0  0  0  0  0  0  0  0  0  0  0
    6.4438    3.0833   -0.1862 H   0  0  0  0  0  0  0  0  0  0  0  0
    6.8967    0.0776    0.1366 H   0  0  0  0  0  0  0  0  0  0  0  0
    6.3618    0.8747   -1.3421 H   0  0  0  0  0  0  0  0  0  0  0  0
    4.8504    0.8629    1.3074 H   0  0  0  0  0  0  0  0  0  0  0  0
    4.3183    1.6792   -0.1616 H   0  0  0  0  0  0  0  0  0  0  0  0
    4.7737   -1.3258    0.1123 H   0  0  0  0  0  0  0  0  0  0  0  0
    4.2315   -0.5036   -1.3496 H   0  0  0  0  0  0  0  0  0  0  0  0
    2.2196    0.3168   -0.1309 H   0  0  0  0  0  0  0  0  0  0  0  0
    2.7435   -0.5498    1.3135 H   0  0  0  0  0  0  0  0  0  0  0  0
    2.6693   -2.6941    0.0236 H   0  0  0  0  0  0  0  0  0  0  0  0
    2.0487   -1.8164   -1.3734 H   0  0  0  0  0  0  0  0  0  0  0  0
    0.6752   -1.9737    1.3480 H   0  0  0  0  0  0  0  0  0  0  0  0
    0.2820   -2.9828   -0.0427 H   0  0  0  0  0  0  0  0  0  0  0  0
   -0.3059   -0.9310   -1.3460 H   0  0  0  0  0  0  0  0  0  0  0  0
    0.0074    0.0504    0.0859 H   0  0  0  0  0  0  0  0  0  0  0  0
   -1.7484   -1.2039    1.3285 H   0  0  0  0  0  0  0  0  0  0  0  0
   -2.0918   -2.1476   -0.1202 H   0  0  0  0  0  0  0  0  0  0  0  0
   -2.3398    0.8852    0.1079 H   0  0  0  0  0  0  0  0  0  0  0  0
   -2.6938   -0.0597   -1.3372 H   0  0  0  0  0  0  0  0  0  0  0  0
   -4.1255   -0.3451    1.3419 H   0  0  0  0  0  0  0  0  0  0  0  0
   -4.4915   -1.2659   -0.1160 H   0  0  0  0  0  0  0  0  0  0  0  0
   -4.6975    1.7665    0.1560 H   0  0  0  0  0  0  0  0  0  0  0  0
   -5.0623    0.8499   -1.3048 H   0  0  0  0  0  0  0  0  0  0  0  0
   -6.8681   -0.3608   -0.1011 H   0  0  0  0  0  0  0  0  0  0  0  0
   -6.4957    0.5373    1.3696 H   0  0  0  0  0  0  0  0  0  0  0  0
   -7.0779    2.6723    0.2149 H   0  0  0  0  0  0  0  0  0  0  0  0
   -7.4501    1.7755   -1.2570 H   0  0  0  0  0  0  0  0  0  0  0  0
   -8.4345    1.5444    0.1890 H   0  0  0  0  0  0  0  0  0  0  0  0
  1  2  1  0  0  0  0
  2  3  1  0  0  0  0
  3  4  1  0  0  0  0
  4  5  1  0  0  0  0
  5  6  1  0  0  0  0
  6  7  1  0  0  0  0
  7  8  1  0  0  0  0
  8  9  1  0  0  0  0
  9 10  1  0  0  0  0
 10 11  1  0  0  0  0
 11 12  1  0  0  0  0
 12 13  1  0  0  0  0
 13 14  1  0  0  0  0
  1 15  1  0  0  0  0
  1 16  1  0  0  0  0
  1 17  1  0  0  0  0
  2 18  1  0  0  0  0
  2 19  1  0  0  0  0
  3 20  1  0  0  0  0
  3 21  1  0  0  0  0
  4 22  1  0  0  0  0
  4 23  1  0  0  0  0
  5 24  1  0  0  0  0
  5 25  1  0  0  0  0
  6 26  1  0  0  0  0
  6 27  1  0  0  0  0
  7 28  1  0  0  0  0
  7 29  1  0  0  0  0
  8 30  1  0  0  0  0
  8 31  1  0  0  0  0
  9 32  1  0  0  0  0
  9 33  1  0  0  0  0
 10 34  1  0  0  0  0
 10 35  1  0  0  0  0
 11 36  1  0  0  0  0
 11 37  1  0  0  0  0
 12 38  1  0  0  0  0
 12 39  1  0  0  0  0
 13 40  1  0  0  0  0
 13 41  1  0  0  0  0
 14 42  1  0  0  0  0
 14 43  1  0  0  0  0
 14 44  1  0  0  0  0
M  END
