  41
 
 C          6.7931499739        0.4834089638       -0.8901436397
 C          5.3056149334        0.6414239545       -0.6138263537
 C          4.8853626953        0.0286379353        0.7234068773
 C          3.4044649992        0.2343330903        1.0562521188
 C          2.4545612231       -0.4863332366        0.0987302822
 C          0.9857191144       -0.3483008168        0.5011822078
 C          0.0353292709       -1.0629897711       -0.4604914354
 C         -1.4303976289       -1.0301174004       -0.0156948220
 C         -2.0413128075        0.3719546167       -0.0214515529
 C         -3.5070314653        0.4051914144        0.4256999401
 C         -4.4640444475       -0.2797895012       -0.5515656119
 C         -5.9288368745       -0.2425323861       -0.1012695751
 C         -6.5176422825        1.1599431633       -0.0744693265
 H          7.0811201602        0.9187474368       -1.8502747214
 H          7.0821541501       -0.5695634935       -0.9077595986
 H          7.3929891087        0.9686887659       -0.1173019408
 H          5.0294912238        1.7046150035       -0.6275407745
 H          4.7250868104        0.1860595620       -1.4269285393
 H          5.5103696009        0.4522622216        1.5210430665
 H          5.1152867606       -1.0442028416        0.7210239299
 H          3.1739675543        1.3070053121        1.0600713263
 H          3.2012849430       -0.1049434763        2.0808375500
 H          2.7229489366       -1.5488463166        0.0454566090
 H          2.5889315918       -0.1061136930       -0.9210165222
 H          0.7255936442        0.7149113674        0.5668505565
 H          0.8447211705       -0.7405428264        1.5160779224
 H          0.3662028517       -2.1037318538       -0.5772262649
 H          0.1264727353       -0.6209413677       -1.4605053814
 H         -2.0254854085       -1.6886606056       -0.6608884215
 H         -1.5172291441       -1.4604151747        0.9897863560
 H         -1.9547566602        0.8039686484       -1.0261397051
 H         -1.4444525765        1.0281622336        0.6249150320
 H         -3.5988903974       -0.0622445277        1.4139639264
 H         -3.8239220220        1.4458696186        0.5708772995
 H         -4.1500435078       -1.3209101452       -0.6988730961
 H         -4.3727251328        0.1891570391       -1.5392158333
 H         -6.0125382328       -0.7028022416        0.8926374112
 H         -6.5339038379       -0.8805123235       -0.7617837833
 H         -5.9982996570        1.8016494316        0.6394973283
 H         -6.4416231712        1.6383906817       -1.0531687695
 H         -7.5738204772        1.1547136636        0.2066612267
          41
         -5.95227890
 C          7.5613866761        0.2691577997       -0.5398018840
 C          6.2331794544        0.7691681646        0.0052330146
 C          5.0771927824       -0.1949165234       -0.2695974379
 C          3.7483278318        0.3045258521        0.2922772719
 C          2.5606812262       -0.5976732546       -0.0481452303
 C          1.2524875524       -0.0776323967        0.5455065147
 C          0.0044306450       -0.7986706177        0.0359397513
 C         -1.2727933581       -0.1730539202        0.5971556769
 C         -2.5635417661       -0.6685185939       -0.0570819442
 C         -3.7622232416        0.1876983011        0.3579376354
 C         -5.0787910734       -0.2091830126       -0.3099703906
 C         -6.2293921667        0.7106587556        0.1000524021
 C         -7.5320687750        0.4122108680       -0.6268126425
 H          7.5068450020        0.1088865163       -1.6190881224
 H          7.8385788795       -0.6834544349       -0.0822785732
 H          8.3721539858        0.9779778070       -0.3490664317
 H          6.3069198509        0.9458852502        1.0874653974
 H          5.9921990220        1.7518477864       -0.4248249257
 H          5.3080105105       -1.1839273156        0.1473937185
 H          4.9837225407       -0.3570758071       -1.3511244396
 H          3.5506923194        1.3174209602       -0.0810041877
 H          3.8285233870        0.4158460442        1.3815359934
 H          2.7501617543       -1.6190473783        0.3066320966
 H          2.4640901103       -0.6854240293       -1.1375757997
 H          1.1602309712        0.9934645990        0.3188397889
 H          1.2941208253       -0.1316686517        1.6410754614
 H          0.0519510638       -1.8665662881        0.2812042595
 H         -0.0188946581       -0.7571358524       -1.0602476418
 H         -1.3177593401       -0.3298395150        1.6826033022
 H         -1.2146480277        0.9149123425        0.4730275146
 H         -2.7378639370       -1.7218719271        0.1960007672
 H         -2.4587715052       -0.6485646043       -1.1488185849
 H         -3.8791158613        0.1564548372        1.4495830802
 H         -3.5474937313        1.2395569765        0.1276070803
 H         -5.3284945096       -1.2491711086       -0.0684505706
 H         -4.9571761195       -0.1861901903       -1.3994695043
 H         -5.9316866285        1.7517416283       -0.0785069664
 H         -6.3801340099        0.6399937786        1.1857556120
 H         -7.4104560335        0.4847887256       -1.7098661422
 H         -7.8868764884       -0.5960664832       -0.4113181823
 H         -8.3254322901        1.1064628156       -0.3425215114
