  35
 
 C         -5.5459483962        0.8741108897        0.0494883594
 C         -4.1558624374        0.4880287795       -0.4327553115
 C         -3.3783361622       -0.3259351666        0.6034677315
 C         -2.0126983977       -0.8127973006        0.1081864986
 C         -1.0138838597        0.3169412762       -0.1481984844
 C          0.3527868793       -0.1744090321       -0.6384697680
 C          1.1421798481       -0.9444270986        0.4210545092
 C          2.4907655950       -1.4720546918       -0.0792215596
 C          3.4648240153       -0.3846958802       -0.5430351293
 C          3.8285694509        0.6222653263        0.5494975374
 C          4.8814762843        1.6223477428        0.0973842910
 H         -6.0919368449        1.4576640887       -0.6958123876
 H         -5.4957915917        1.4714925618        0.9621208331
 H         -6.1452432930       -0.0100351812        0.2765134562
 H         -4.2267207034       -0.0871278616       -1.3661725008
 H         -3.5885509058        1.3904600252       -0.6967508980
 H         -3.9906627592       -1.1845310937        0.9109249568
 H         -3.2475122695        0.2714484305        1.5143968342
 H         -2.1438663658       -1.3975093337       -0.8108025801
 H         -1.5877009732       -1.5157704035        0.8359921194
 H         -0.8843213197        0.9059068254        0.7682485551
 H         -1.4386978570        1.0157104971       -0.8804872975
 H          0.9497073986        0.6802108725       -0.9827745642
 H          0.2184097704       -0.8063193475       -1.5250605142
 H          0.5366510758       -1.7829699163        0.7886407612
 H          1.2934168468       -0.3039642573        1.2983786831
 H          2.9699623041       -2.0630921244        0.7129328174
 H          2.3137976300       -2.1813228112       -0.8988859011
 H          4.3864274488       -0.8492463279       -0.9197912350
 H          3.0492686581        0.1483703360       -1.4067943210
 H          2.9250225175        1.1544012150        0.8763819459
 H          4.1784184096        0.0812432699        1.4393827101
 H          4.5419287782        2.1866701116       -0.7735920908
 H          5.8080816898        1.1191351527       -0.1866242395
 H          5.1265317726        2.3431459370        0.8813219248
          35
         -5.06393351
 C         -3.1310538895        2.1403336735        0.6993360562
 C         -3.3723651410        1.4225670987       -0.6191170009
 C         -3.8118162405       -0.0356007565       -0.4506776364
 C         -2.8079419819       -0.9148944927        0.3035535856
 C         -1.4008803157       -0.8953514172       -0.2979780231
 C         -0.4276649935       -1.8293414091        0.4232807282
 C          1.0170371982       -1.7048285457       -0.0723916629
 C          1.6513207311       -0.3477375521        0.2318451602
 C          3.1105823276       -0.2540970596       -0.2224850670
 C          3.7623179683        1.0852599588        0.1268269461
 C          5.2576637286        1.1037999885       -0.1629605459
 H         -4.0281972294        2.1406776570        1.3204482257
 H         -2.8362846897        3.1810501357        0.5490037625
 H         -2.3397066465        1.6620948390        1.2786815057
 H         -4.1274252820        1.9693646106       -1.2030024922
 H         -2.4656959708        1.4600459746       -1.2364126809
 H         -4.0030681022       -0.4749954542       -1.4399290673
 H         -4.7807579554       -0.0591936644        0.0654080134
 H         -3.1719195458       -1.9508360644        0.3400536897
 H         -2.7526230578       -0.5984430842        1.3532236568
 H         -1.0132198083        0.1293768111       -0.2636037024
 H         -1.4426702334       -1.1493786736       -1.3653611669
 H         -0.7774136378       -2.8647785731        0.3160931567
 H         -0.4592218739       -1.6275356198        1.5006777151
 H          1.0562807353       -1.8906822970       -1.1526328439
 H          1.6353275161       -2.4933696069        0.3752267395
 H          1.0743978315        0.4541458104       -0.2421640065
 H          1.5878070409       -0.1501027894        1.3084839269
 H          3.6890382615       -1.0719072487        0.2299556793
 H          3.1747792032       -0.4258460022       -1.3057004208
 H          3.2556948890        1.8925376260       -0.4192210532
 H          3.5856625158        1.3056235982        1.1883194743
 H          5.7820424960        0.3599314880        0.4453952600
 H          5.7084319444        2.0760425230        0.0519365744
 H          5.4696445727        0.8657503401       -1.2090599618
