35
Generated by generate_xyz.py
C  -5.529000000   0.837900000   0.055100000
C  -4.139900000   0.472300000  -0.446100000
C  -3.375500000  -0.356500000   0.587000000
C  -2.015400000  -0.854700000   0.086700000
C  -1.002400000   0.271200000  -0.137800000
C   0.358800000  -0.224800000  -0.640300000
C   1.142100000  -1.018900000   0.408000000
C   2.499600000  -1.520800000  -0.097100000
C   3.492500000  -0.442300000  -0.541100000
C   3.843700000   0.554900000   0.563200000
C   4.920100000   1.529000000   0.108900000
H  -6.058100000   1.433300000  -0.695700000
H  -5.471000000   1.426200000   0.976500000
H  -6.122700000  -0.059400000   0.256400000
H  -4.232700000  -0.091000000  -1.381700000
H  -3.596900000   1.395700000  -0.672800000
H  -3.979300000  -1.231700000   0.858300000
H  -3.238600000   0.228200000   1.504900000
H  -2.150800000  -1.423100000  -0.841400000
H  -1.626400000  -1.555400000   0.833500000
H  -0.867300000   0.841500000   0.789100000
H  -1.394200000   0.969700000  -0.885600000
H   0.939500000   0.655800000  -0.937400000
H   0.219800000  -0.833200000  -1.542000000
H   0.562800000  -1.897700000   0.712700000
H   1.277600000  -0.412200000   1.310400000
H   2.962400000  -2.119200000   0.697800000
H   2.333200000  -2.205200000  -0.938400000
H   4.409500000  -0.944700000  -0.874600000
H   3.103000000   0.091800000  -1.415200000
H   2.956700000   1.126700000   0.856100000
H   4.196100000   0.018600000   1.451800000
H   4.587600000   2.101800000  -0.762700000
H   5.841000000   1.000500000  -0.157400000
H   5.154400000   2.235800000   0.911000000
