 xtb: 6.6.1 (8d0f1dd)
          04232412103D

 26 25  0     0  0            999 V2000
   -3.5741   -0.2842    1.1645 C   0  0  0  0  0  0  0  0  0  0  0  0
   -2.6685   -0.5612   -0.0293 C   0  0  0  0  0  0  0  0  0  0  0  0
   -1.3954    0.2812    0.0104 C   0  0  0  0  0  0  0  0  0  0  0  0
   -0.4902   -0.0058   -1.1854 C   0  0  0  0  0  0  0  0  0  0  0  0
    0.7287    0.9150   -1.2662 C   0  0  0  0  0  0  0  0  0  0  0  0
    1.6919    0.8196   -0.0818 C   0  0  0  0  0  0  0  0  0  0  0  0
    2.3272   -0.5597    0.0786 C   0  0  0  0  0  0  0  0  0  0  0  0
    3.3855   -0.5651    1.1755 C   0  0  0  0  0  0  0  0  0  0  0  0
   -3.0539   -0.4966    2.0962 H   0  0  0  0  0  0  0  0  0  0  0  0
   -4.4663   -0.9048    1.1207 H   0  0  0  0  0  0  0  0  0  0  0  0
   -3.8823    0.7592    1.1759 H   0  0  0  0  0  0  0  0  0  0  0  0
   -2.3980   -1.6198   -0.0410 H   0  0  0  0  0  0  0  0  0  0  0  0
   -3.2127   -0.3501   -0.9530 H   0  0  0  0  0  0  0  0  0  0  0  0
   -1.6633    1.3406    0.0147 H   0  0  0  0  0  0  0  0  0  0  0  0
   -0.8620    0.0686    0.9384 H   0  0  0  0  0  0  0  0  0  0  0  0
   -0.1649   -1.0471   -1.1520 H   0  0  0  0  0  0  0  0  0  0  0  0
   -1.0722    0.1215   -2.1022 H   0  0  0  0  0  0  0  0  0  0  0  0
    1.2776    0.6809   -2.1822 H   0  0  0  0  0  0  0  0  0  0  0  0
    0.3810    1.9482   -1.3469 H   0  0  0  0  0  0  0  0  0  0  0  0
    2.4874    1.5545   -0.2317 H   0  0  0  0  0  0  0  0  0  0  0  0
    1.1727    1.0888    0.8395 H   0  0  0  0  0  0  0  0  0  0  0  0
    1.5587   -1.2943    0.3243 H   0  0  0  0  0  0  0  0  0  0  0  0
    2.7841   -0.8581   -0.8680 H   0  0  0  0  0  0  0  0  0  0  0  0
    2.9473   -0.2772    2.1289 H   0  0  0  0  0  0  0  0  0  0  0  0
    4.1831    0.1371    0.9415 H   0  0  0  0  0  0  0  0  0  0  0  0
    3.8214   -1.5556    1.2837 H   0  0  0  0  0  0  0  0  0  0  0  0
  1  2  1  0  0  0  0
  2  3  1  0  0  0  0
  3  4  1  0  0  0  0
  4  5  1  0  0  0  0
  5  6  1  0  0  0  0
  6  7  1  0  0  0  0
  7  8  1  0  0  0  0
  1  9  1  0  0  0  0
  1 10  1  0  0  0  0
  1 11  1  0  0  0  0
  2 12  1  0  0  0  0
  2 13  1  0  0  0  0
  3 14  1  0  0  0  0
  3 15  1  0  0  0  0
  4 16  1  0  0  0  0
  4 17  1  0  0  0  0
  5 18  1  0  0  0  0
  5 19  1  0  0  0  0
  6 20  1  0  0  0  0
  6 21  1  0  0  0  0
  7 22  1  0  0  0  0
  7 23  1  0  0  0  0
  8 24  1  0  0  0  0
  8 25  1  0  0  0  0
  8 26  1  0  0  0  0
M  END
