  23
 
 C         -2.5531204767        1.1424853575       -0.5176232157
 C         -2.1809938236        0.2536500999        0.6591099003
 C         -1.5149182034       -1.0618410904        0.2410925945
 C         -0.1993380673       -0.8866671270       -0.5237400738
 C          0.8855585950       -0.1704266386        0.2810475886
 C          2.2187091640       -0.0755806793       -0.4628211549
 C          3.2853128569        0.6559663912        0.3370296546
 H         -3.2078411856        0.6178637712       -1.2169623361
 H         -3.0733753314        2.0492069565       -0.1984846800
 H         -1.6705403401        1.4586784791       -1.0773097508
 H         -1.5200566614        0.7989960627        1.3452620708
 H         -3.0798704416        0.0366353240        1.2538365495
 H         -1.3296591226       -1.6803187682        1.1294454428
 H         -2.2215180150       -1.6400695586       -0.3690398342
 H         -0.3797159347       -0.3417989429       -1.4582550054
 H          0.1808380786       -1.8668365737       -0.8411410349
 H          1.0338785292       -0.6850872292        1.2386542031
 H          0.5483453467        0.8380904977        0.5488497530
 H          2.5638067843       -1.0862413242       -0.7197305216
 H          2.0606005020        0.4232945926       -1.4285316205
 H          2.9766019404        1.6788845408        0.5639975807
 H          4.2366343559        0.7111969819       -0.1981292302
 H          3.4736595045        0.1588163986        1.2911546591
          23
         -3.28992405
 C         -3.4254249220        0.8157100814        0.1376622298
 C         -2.4373311599       -0.2706320017       -0.2536067677
 C         -1.0085296385        0.0529608712        0.1827017128
 C         -0.0206575557       -1.0681343044       -0.1342696785
 C          1.4047979295       -0.7691113517        0.3327381549
 C          2.0234442742        0.4451668517       -0.3577334817
 C          3.4598543875        0.6898597185        0.0763982855
 H         -4.4519684521        0.5541259910       -0.1363946605
 H         -3.3995866382        0.9900283886        1.2152724503
 H         -3.1821973784        1.7630805722       -0.3543707952
 H         -2.7405285175       -1.2364089043        0.1796187435
 H         -2.4524816251       -0.4318525830       -1.3419485339
 H         -0.6903992446        0.9845214082       -0.2985628675
 H         -0.9886738564        0.2611523943        1.2604589019
 H         -0.0239617605       -1.2682953200       -1.2135184164
 H         -0.3775683115       -1.9995665069        0.3274909559
 H          2.0437483052       -1.6453423868        0.1553862048
 H          1.4145687324       -0.6223741091        1.4235317880
 H          1.9701986706        0.3059364944       -1.4469558276
 H          1.4209485517        1.3392586440       -0.1588078796
 H          3.5148572770        0.8988119639        1.1476040812
 H          3.9065306734        1.5366634344       -0.4533611510
 H          4.0823539669       -0.1882397263       -0.1134678542
