 xtb: 6.6.1 (8d0f1dd)
          04232412103D

 41 40  0     0  0            999 V2000
    3.5230   -2.6822   -1.0949 C   0  0  0  0  0  0  0  0  0  0  0  0
    3.7380   -1.1795   -0.9586 C   0  0  0  0  0  0  0  0  0  0  0  0
    2.4818   -0.4694   -0.4597 C   0  0  0  0  0  0  0  0  0  0  0  0
    2.6975    1.0350   -0.3025 C   0  0  0  0  0  0  0  0  0  0  0  0
    1.4222    1.7854    0.0850 C   0  0  0  0  0  0  0  0  0  0  0  0
    0.9763    1.5035    1.5182 C   0  0  0  0  0  0  0  0  0  0  0  0
   -0.2777    2.2785    1.9295 C   0  0  0  0  0  0  0  0  0  0  0  0
   -1.5078    2.0201    1.0561 C   0  0  0  0  0  0  0  0  0  0  0  0
   -1.8964    0.5461    0.9679 C   0  0  0  0  0  0  0  0  0  0  0  0
   -3.1245    0.3430    0.0843 C   0  0  0  0  0  0  0  0  0  0  0  0
   -3.5650   -1.1184   -0.0224 C   0  0  0  0  0  0  0  0  0  0  0  0
   -2.5114   -2.0706   -0.5930 C   0  0  0  0  0  0  0  0  0  0  0  0
   -2.0425   -1.6870   -1.9916 C   0  0  0  0  0  0  0  0  0  0  0  0
    4.4277   -3.1685   -1.4527 H   0  0  0  0  0  0  0  0  0  0  0  0
    2.7201   -2.8905   -1.7990 H   0  0  0  0  0  0  0  0  0  0  0  0
    3.2563   -3.1184   -0.1345 H   0  0  0  0  0  0  0  0  0  0  0  0
    4.5584   -0.9922   -0.2619 H   0  0  0  0  0  0  0  0  0  0  0  0
    4.0268   -0.7654   -1.9275 H   0  0  0  0  0  0  0  0  0  0  0  0
    2.1896   -0.9036    0.4981 H   0  0  0  0  0  0  0  0  0  0  0  0
    1.6673   -0.6444   -1.1672 H   0  0  0  0  0  0  0  0  0  0  0  0
    3.0646    1.4346   -1.2515 H   0  0  0  0  0  0  0  0  0  0  0  0
    3.4690    1.2147    0.4500 H   0  0  0  0  0  0  0  0  0  0  0  0
    0.6309    1.5044   -0.6115 H   0  0  0  0  0  0  0  0  0  0  0  0
    1.5934    2.8593   -0.0233 H   0  0  0  0  0  0  0  0  0  0  0  0
    1.7870    1.7785    2.1981 H   0  0  0  0  0  0  0  0  0  0  0  0
    0.7954    0.4364    1.6463 H   0  0  0  0  0  0  0  0  0  0  0  0
   -0.0576    3.3490    1.9042 H   0  0  0  0  0  0  0  0  0  0  0  0
   -0.5177    2.0170    2.9633 H   0  0  0  0  0  0  0  0  0  0  0  0
   -2.3468    2.5859    1.4697 H   0  0  0  0  0  0  0  0  0  0  0  0
   -1.3277    2.4037    0.0499 H   0  0  0  0  0  0  0  0  0  0  0  0
   -2.0983    0.1604    1.9700 H   0  0  0  0  0  0  0  0  0  0  0  0
   -1.0630   -0.0178    0.5513 H   0  0  0  0  0  0  0  0  0  0  0  0
   -3.9569    0.9228    0.4920 H   0  0  0  0  0  0  0  0  0  0  0  0
   -2.9175    0.7352   -0.9133 H   0  0  0  0  0  0  0  0  0  0  0  0
   -4.4550   -1.1629   -0.6556 H   0  0  0  0  0  0  0  0  0  0  0  0
   -3.8501   -1.4751    0.9707 H   0  0  0  0  0  0  0  0  0  0  0  0
   -2.9461   -3.0729   -0.6286 H   0  0  0  0  0  0  0  0  0  0  0  0
   -1.6520   -2.1160    0.0782 H   0  0  0  0  0  0  0  0  0  0  0  0
   -2.8915   -1.5873   -2.6648 H   0  0  0  0  0  0  0  0  0  0  0  0
   -1.5017   -0.7443   -1.9778 H   0  0  0  0  0  0  0  0  0  0  0  0
   -1.3780   -2.4515   -2.3890 H   0  0  0  0  0  0  0  0  0  0  0  0
  1  2  1  0  0  0  0
  2  3  1  0  0  0  0
  3  4  1  0  0  0  0
  4  5  1  0  0  0  0
  5  6  1  0  0  0  0
  6  7  1  0  0  0  0
  7  8  1  0  0  0  0
  8  9  1  0  0  0  0
  9 10  1  0  0  0  0
 10 11  1  0  0  0  0
 11 12  1  0  0  0  0
 12 13  1  0  0  0  0
  1 14  1  0  0  0  0
  1 15  1  0  0  0  0
  1 16  1  0  0  0  0
  2 17  1  0  0  0  0
  2 18  1  0  0  0  0
  3 19  1  0  0  0  0
  3 20  1  0  0  0  0
  4 21  1  0  0  0  0
  4 22  1  0  0  0  0
  5 23  1  0  0  0  0
  5 24  1  0  0  0  0
  6 25  1  0  0  0  0
  6 26  1  0  0  0  0
  7 27  1  0  0  0  0
  7 28  1  0  0  0  0
  8 29  1  0  0  0  0
  8 30  1  0  0  0  0
  9 31  1  0  0  0  0
  9 32  1  0  0  0  0
 10 33  1  0  0  0  0
 10 34  1  0  0  0  0
 11 35  1  0  0  0  0
 11 36  1  0  0  0  0
 12 37  1  0  0  0  0
 12 38  1  0  0  0  0
 13 39  1  0  0  0  0
 13 40  1  0  0  0  0
 13 41  1  0  0  0  0
M  END
