  29
 
 C         -4.5677693011       -0.4040780297       -0.1254796807
 C         -3.0526685710       -0.5329457133       -0.1639578331
 C         -2.3472552281        0.8220289559       -0.2452885772
 C         -0.8223915059        0.7156876814       -0.3433795758
 C         -0.1736717290        0.1002200465        0.8977690766
 C          1.3570349948        0.1389085736        0.8702389650
 C          1.9695492744       -0.6851732358       -0.2635984044
 C          3.4988648765       -0.7610372955       -0.2035836196
 C          4.1757771895        0.5890448914       -0.3853863185
 H         -5.0613719225       -1.3768950019       -0.0604113804
 H         -4.9449638957        0.0960437186       -1.0199496222
 H         -4.8919779718        0.1863976490        0.7340630052
 H         -2.7468195187       -1.1525166525       -1.0180019715
 H         -2.7026973223       -1.0778963387        0.7226575717
 H         -2.7404124342        1.3776261454       -1.1072518510
 H         -2.6173320052        1.4257228340        0.6301916582
 H         -0.3885370786        1.7095828130       -0.5166570857
 H         -0.5562233686        0.1276748017       -1.2300677448
 H         -0.5074469961       -0.9378969375        1.0136997943
 H         -0.5443516673        0.6227853470        1.7897744142
 H          1.7572089669       -0.2198930186        1.8279510451
 H          1.6910518163        1.1804836985        0.7917952386
 H          1.6654341290       -0.2666135391       -1.2306426752
 H          1.5423631992       -1.6966851139       -0.2408999929
 H          3.8008220240       -1.2040379135        0.7552145953
 H          3.8642706334       -1.4615966513       -0.9683815351
 H          5.2653814858        0.5052891462       -0.3756236761
 H          3.8997870114        1.2866010648        0.4074830913
 H          3.8904244963        1.0492597294       -1.3336209927
          29
         -4.17713034
 C         -5.0100353872        0.0637330787       -0.0879334334
 C         -3.6657517474       -0.5907539901        0.1869812496
 C         -2.4849432655        0.3102883552       -0.1720270768
 C         -1.1389113929       -0.3490895426        0.1162835233
 C          0.0516154388        0.5539746490       -0.1955322025
 C          1.3782829602       -0.0481946741        0.2626075736
 C          2.5840853261        0.8101092001       -0.1239249960
 C          3.9149618810        0.2608599203        0.4078083341
 C          4.4118315925       -0.9501425776       -0.3651855174
 H         -5.8453151844       -0.5613352238        0.2419113408
 H         -5.1461414665        0.2593677000       -1.1566244179
 H         -5.0918996985        1.0241378838        0.4270390211
 H         -3.5838394520       -1.5377294567       -0.3624367848
 H         -3.5930324195       -0.8722790265        1.2472725217
 H         -2.5381537801        0.6005239588       -1.2291288680
 H         -2.5576529128        1.2505067407        0.3897086010
 H         -1.0488843286       -1.2860438680       -0.4520952674
 H         -1.0978163035       -0.6527835794        1.1709424684
 H         -0.0935786233        1.5324494701        0.2786385601
 H          0.0896458447        0.7646196976       -1.2729902526
 H          1.4844929820       -1.0616114087       -0.1468811588
 H          1.3584046233       -0.1847986314        1.3549063303
 H          2.4215442391        1.8334161241        0.2468960808
 H          2.6337585206        0.9005535740       -1.2151801044
 H          4.6788765460        1.0502626559        0.3832616317
 H          3.8052083551        0.0159565515        1.4727361215
 H          3.6744378866       -1.7532915274       -0.3783185107
 H          5.3363818267       -1.3522003324        0.0607873444
 H          4.6233586063       -0.6940805198       -1.4069565184
