 xtb: 6.6.1 (8d0f1dd)
          04232412103D

 38 37  0     0  0            999 V2000
    6.5661    0.7922    0.1879 C   0  0  0  0  0  0  0  0  0  0  0  0
    5.1408    1.0554   -0.2825 C   0  0  0  0  0  0  0  0  0  0  0  0
    4.1737   -0.0247    0.1963 C   0  0  0  0  0  0  0  0  0  0  0  0
    2.7448    0.2376   -0.2720 C   0  0  0  0  0  0  0  0  0  0  0  0
    1.7732   -0.8404    0.2022 C   0  0  0  0  0  0  0  0  0  0  0  0
    0.3453   -0.5632   -0.2617 C   0  0  0  0  0  0  0  0  0  0  0  0
   -0.6308   -1.6322    0.2242 C   0  0  0  0  0  0  0  0  0  0  0  0
   -2.0563   -1.4331   -0.2929 C   0  0  0  0  0  0  0  0  0  0  0  0
   -2.7348   -0.1848    0.2666 C   0  0  0  0  0  0  0  0  0  0  0  0
   -4.1842   -0.0644   -0.1981 C   0  0  0  0  0  0  0  0  0  0  0  0
   -4.8540    1.1957    0.3450 C   0  0  0  0  0  0  0  0  0  0  0  0
   -6.3000    1.3199   -0.1195 C   0  0  0  0  0  0  0  0  0  0  0  0
    7.2366    1.5730   -0.1636 H   0  0  0  0  0  0  0  0  0  0  0  0
    6.9223   -0.1631   -0.1916 H   0  0  0  0  0  0  0  0  0  0  0  0
    6.6098    0.7654    1.2746 H   0  0  0  0  0  0  0  0  0  0  0  0
    4.8089    2.0268    0.0913 H   0  0  0  0  0  0  0  0  0  0  0  0
    5.1209    1.0979   -1.3740 H   0  0  0  0  0  0  0  0  0  0  0  0
    4.1937   -0.0683    1.2879 H   0  0  0  0  0  0  0  0  0  0  0  0
    4.5042   -0.9965   -0.1782 H   0  0  0  0  0  0  0  0  0  0  0  0
    2.4156    1.2093    0.1042 H   0  0  0  0  0  0  0  0  0  0  0  0
    2.7258    0.2844   -1.3636 H   0  0  0  0  0  0  0  0  0  0  0  0
    2.0971   -1.8122   -0.1781 H   0  0  0  0  0  0  0  0  0  0  0  0
    1.7942   -0.8908    1.2936 H   0  0  0  0  0  0  0  0  0  0  0  0
    0.3222   -0.5236   -1.3534 H   0  0  0  0  0  0  0  0  0  0  0  0
    0.0385    0.4147    0.1128 H   0  0  0  0  0  0  0  0  0  0  0  0
   -0.2720   -2.6096   -0.1084 H   0  0  0  0  0  0  0  0  0  0  0  0
   -0.6418   -1.6408    1.3168 H   0  0  0  0  0  0  0  0  0  0  0  0
   -2.6521   -2.3074   -0.0186 H   0  0  0  0  0  0  0  0  0  0  0  0
   -2.0390   -1.3765   -1.3840 H   0  0  0  0  0  0  0  0  0  0  0  0
   -2.1895    0.7055   -0.0511 H   0  0  0  0  0  0  0  0  0  0  0  0
   -2.7081   -0.2192    1.3585 H   0  0  0  0  0  0  0  0  0  0  0  0
   -4.2123   -0.0455   -1.2903 H   0  0  0  0  0  0  0  0  0  0  0  0
   -4.7457   -0.9424    0.1306 H   0  0  0  0  0  0  0  0  0  0  0  0
   -4.2912    2.0721    0.0152 H   0  0  0  0  0  0  0  0  0  0  0  0
   -4.8241    1.1764    1.4369 H   0  0  0  0  0  0  0  0  0  0  0  0
   -6.8832    0.4651    0.2162 H   0  0  0  0  0  0  0  0  0  0  0  0
   -6.3492    1.3613   -1.2055 H   0  0  0  0  0  0  0  0  0  0  0  0
   -6.7543    2.2238    0.2795 H   0  0  0  0  0  0  0  0  0  0  0  0
  1  2  1  0  0  0  0
  2  3  1  0  0  0  0
  3  4  1  0  0  0  0
  4  5  1  0  0  0  0
  5  6  1  0  0  0  0
  6  7  1  0  0  0  0
  7  8  1  0  0  0  0
  8  9  1  0  0  0  0
  9 10  1  0  0  0  0
 10 11  1  0  0  0  0
 11 12  1  0  0  0  0
  1 13  1  0  0  0  0
  1 14  1  0  0  0  0
  1 15  1  0  0  0  0
  2 16  1  0  0  0  0
  2 17  1  0  0  0  0
  3 18  1  0  0  0  0
  3 19  1  0  0  0  0
  4 20  1  0  0  0  0
  4 21  1  0  0  0  0
  5 22  1  0  0  0  0
  5 23  1  0  0  0  0
  6 24  1  0  0  0  0
  6 25  1  0  0  0  0
  7 26  1  0  0  0  0
  7 27  1  0  0  0  0
  8 28  1  0  0  0  0
  8 29  1  0  0  0  0
  9 30  1  0  0  0  0
  9 31  1  0  0  0  0
 10 32  1  0  0  0  0
 10 33  1  0  0  0  0
 11 34  1  0  0  0  0
 11 35  1  0  0  0  0
 12 36  1  0  0  0  0
 12 37  1  0  0  0  0
 12 38  1  0  0  0  0
M  END
