  38
 
 C          5.3387000000       -0.1917000000       -0.3040000000
 C          4.2462000000       -1.1741000000       -0.6968000000
 C          3.0446000000       -1.1628000000        0.2505000000
 C          2.2709000000        0.1583000000        0.2332000000
 C          1.0193000000        0.0752000000        1.1108000000
 C          0.2624000000        1.4024000000        1.2180000000
 C         -0.2577000000        1.9804000000       -0.1022000000
 C         -1.1631000000        1.0568000000       -0.9226000000
 C         -2.4378000000        0.6413000000       -0.1836000000
 C         -3.3499000000       -0.1955000000       -1.0848000000
 C         -4.6844000000       -0.5566000000       -0.4290000000
 C         -4.5418000000       -1.4813000000        0.7701000000
 H          6.2075000000       -0.3153000000       -0.9585000000
 H          5.6652000000       -0.3584000000        0.7273000000
 H          4.9996000000        0.8441000000       -0.3973000000
 H          3.9164000000       -0.9626000000       -1.7207000000
 H          4.6727000000       -2.1843000000       -0.7040000000
 H          3.3799000000       -1.3824000000        1.2715000000
 H          2.3700000000       -1.9769000000       -0.0426000000
 H          2.9091000000        0.9718000000        0.5953000000
 H          1.9907000000        0.3956000000       -0.7991000000
 H          0.3522000000       -0.7093000000        0.7356000000
 H          1.3128000000       -0.2297000000        2.1233000000
 H          0.9204000000        2.1478000000        1.6829000000
 H         -0.5762000000        1.2709000000        1.9121000000
 H         -0.8053000000        2.9051000000        0.1205000000
 H          0.5923000000        2.2801000000       -0.7267000000
 H         -0.6077000000        0.1656000000       -1.2364000000
 H         -1.4397000000        1.5860000000       -1.8433000000
 H         -2.9748000000        1.5358000000        0.1537000000
 H         -2.1732000000        0.0626000000        0.7069000000
 H         -3.5615000000        0.3670000000       -2.0027000000
 H         -2.8296000000       -1.1120000000       -1.3888000000
 H         -5.3153000000       -1.0519000000       -1.1767000000
 H         -5.2104000000        0.3561000000       -0.1254000000
 H         -5.5305000000       -1.7816000000        1.1319000000
 H         -4.0230000000       -0.9888000000        1.5976000000
 H         -3.9889000000       -2.3877000000        0.5041000000
