53
Generated by generate_xyz.py
C   7.619100000  -0.715500000  -0.791900000
C   6.561000000  -1.219000000   0.177600000
C   5.575800000  -0.136700000   0.627500000
C   4.680400000   0.373900000  -0.504200000
C   3.698400000   1.463100000  -0.058500000
C   2.688800000   1.053000000   1.018600000
C   1.815000000  -0.159000000   0.680600000
C   0.981100000  -0.035600000  -0.598800000
C   0.011900000   1.149900000  -0.643300000
C  -1.016300000   1.208200000   0.491200000
C  -1.905200000  -0.029900000   0.652400000
C  -2.767600000  -0.322300000  -0.577800000
C  -3.659700000  -1.557700000  -0.414400000
C  -4.685200000  -1.497000000   0.722300000
C  -5.639200000  -0.299200000   0.694400000
C  -6.498100000  -0.236700000  -0.568900000
C  -7.499100000   0.906700000  -0.502400000
H   8.155200000   0.144100000  -0.377500000
H   8.349900000  -1.505500000  -0.992600000
H   7.180000000  -0.421700000  -1.749600000
H   7.066600000  -1.616900000   1.065700000
H   6.016100000  -2.054400000  -0.277200000
H   6.127000000   0.701100000   1.071400000
H   4.954500000  -0.564900000   1.422100000
H   4.136200000  -0.463600000  -0.954700000
H   5.303100000   0.800300000  -1.299000000
H   4.270300000   2.321500000   0.316400000
H   3.158600000   1.826000000  -0.941200000
H   3.221300000   0.845800000   1.954500000
H   2.046500000   1.914900000   1.235400000
H   2.448200000  -1.050300000   0.596600000
H   1.149900000  -0.353000000   1.530500000
H   1.651100000   0.033400000  -1.464000000
H   0.420400000  -0.967700000  -0.737900000
H  -0.511800000   1.133100000  -1.606600000
H   0.582600000   2.086300000  -0.640100000
H  -1.657600000   2.083700000   0.328400000
H  -0.498200000   1.389300000   1.440300000
H  -1.293100000  -0.905900000   0.894100000
H  -2.552100000   0.143600000   1.520000000
H  -3.378000000   0.554300000  -0.822000000
H  -2.120700000  -0.499200000  -1.444600000
H  -3.021000000  -2.435700000  -0.254000000
H  -4.181400000  -1.737500000  -1.362100000
H  -5.277400000  -2.420700000   0.699000000
H  -4.161200000  -1.503800000   1.685300000
H  -6.296700000  -0.369900000   1.570200000
H  -5.076100000   0.634100000   0.809100000
H  -7.039300000  -1.181000000  -0.698700000
H  -5.866800000  -0.097900000  -1.453000000
H  -6.988000000   1.869500000  -0.401200000
H  -8.101800000   0.936200000  -1.415500000
H  -8.177400000   0.786000000   0.348200000
