  53
 
 C          7.6191000000       -0.7155000000       -0.7919000000
 C          6.5610000000       -1.2190000000        0.1776000000
 C          5.5758000000       -0.1367000000        0.6275000000
 C          4.6804000000        0.3739000000       -0.5042000000
 C          3.6984000000        1.4631000000       -0.0585000000
 C          2.6888000000        1.0530000000        1.0186000000
 C          1.8150000000       -0.1590000000        0.6806000000
 C          0.9811000000       -0.0356000000       -0.5988000000
 C          0.0119000000        1.1499000000       -0.6433000000
 C         -1.0163000000        1.2082000000        0.4912000000
 C         -1.9052000000       -0.0299000000        0.6524000000
 C         -2.7676000000       -0.3223000000       -0.5778000000
 C         -3.6597000000       -1.5577000000       -0.4144000000
 C         -4.6852000000       -1.4970000000        0.7223000000
 C         -5.6392000000       -0.2992000000        0.6944000000
 C         -6.4981000000       -0.2367000000       -0.5689000000
 C         -7.4991000000        0.9067000000       -0.5024000000
 H          8.1552000000        0.1441000000       -0.3775000000
 H          8.3499000000       -1.5055000000       -0.9926000000
 H          7.1800000000       -0.4217000000       -1.7496000000
 H          7.0666000000       -1.6169000000        1.0657000000
 H          6.0161000000       -2.0544000000       -0.2772000000
 H          6.1270000000        0.7011000000        1.0714000000
 H          4.9545000000       -0.5649000000        1.4221000000
 H          4.1362000000       -0.4636000000       -0.9547000000
 H          5.3031000000        0.8003000000       -1.2990000000
 H          4.2703000000        2.3215000000        0.3164000000
 H          3.1586000000        1.8260000000       -0.9412000000
 H          3.2213000000        0.8458000000        1.9545000000
 H          2.0465000000        1.9149000000        1.2354000000
 H          2.4482000000       -1.0503000000        0.5966000000
 H          1.1499000000       -0.3530000000        1.5305000000
 H          1.6511000000        0.0334000000       -1.4640000000
 H          0.4204000000       -0.9677000000       -0.7379000000
 H         -0.5118000000        1.1331000000       -1.6066000000
 H          0.5826000000        2.0863000000       -0.6401000000
 H         -1.6576000000        2.0837000000        0.3284000000
 H         -0.4982000000        1.3893000000        1.4403000000
 H         -1.2931000000       -0.9059000000        0.8941000000
 H         -2.5521000000        0.1436000000        1.5200000000
 H         -3.3780000000        0.5543000000       -0.8220000000
 H         -2.1207000000       -0.4992000000       -1.4446000000
 H         -3.0210000000       -2.4357000000       -0.2540000000
 H         -4.1814000000       -1.7375000000       -1.3621000000
 H         -5.2774000000       -2.4207000000        0.6990000000
 H         -4.1612000000       -1.5038000000        1.6853000000
 H         -6.2967000000       -0.3699000000        1.5702000000
 H         -5.0761000000        0.6341000000        0.8091000000
 H         -7.0393000000       -1.1810000000       -0.6987000000
 H         -5.8668000000       -0.0979000000       -1.4530000000
 H         -6.9880000000        1.8695000000       -0.4012000000
 H         -8.1018000000        0.9362000000       -1.4155000000
 H         -8.1774000000        0.7860000000        0.3482000000
