 xtb: 6.6.1 (8d0f1dd)
          04232412093D

 17 16  0     0  0            999 V2000
   -1.8933    0.6589   -0.3422 C   0  0  0  0  0  0  0  0  0  0  0  0
   -1.1111   -0.1812    0.6604 C   0  0  0  0  0  0  0  0  0  0  0  0
    0.0000   -1.0137    0.0183 C   0  0  0  0  0  0  0  0  0  0  0  0
    1.1109   -0.2047   -0.6536 C   0  0  0  0  0  0  0  0  0  0  0  0
    1.8936    0.6705    0.3183 C   0  0  0  0  0  0  0  0  0  0  0  0
   -2.2932    0.0307   -1.1358 H   0  0  0  0  0  0  0  0  0  0  0  0
   -1.2625    1.4215   -0.7917 H   0  0  0  0  0  0  0  0  0  0  0  0
   -2.7248    1.1575    0.1516 H   0  0  0  0  0  0  0  0  0  0  0  0
   -1.8015   -0.8668    1.1588 H   0  0  0  0  0  0  0  0  0  0  0  0
   -0.6894    0.4683    1.4291 H   0  0  0  0  0  0  0  0  0  0  0  0
   -0.4477   -1.6740   -0.7292 H   0  0  0  0  0  0  0  0  0  0  0  0
    0.4479   -1.6465    0.7892 H   0  0  0  0  0  0  0  0  0  0  0  0
    0.6888    0.4172   -1.4446 H   0  0  0  0  0  0  0  0  0  0  0  0
    1.8010   -0.9075   -1.1276 H   0  0  0  0  0  0  0  0  0  0  0  0
    2.7236    1.1527   -0.1938 H   0  0  0  0  0  0  0  0  0  0  0  0
    2.2956    0.0705    1.1323 H   0  0  0  0  0  0  0  0  0  0  0  0
    1.2625    1.4473    0.7422 H   0  0  0  0  0  0  0  0  0  0  0  0
  1  2  1  0  0  0  0
  2  3  1  0  0  0  0
  3  4  1  0  0  0  0
  4  5  1  0  0  0  0
  1  6  1  0  0  0  0
  1  7  1  0  0  0  0
  1  8  1  0  0  0  0
  2  9  1  0  0  0  0
  2 10  1  0  0  0  0
  3 11  1  0  0  0  0
  3 12  1  0  0  0  0
  4 13  1  0  0  0  0
  4 14  1  0  0  0  0
  5 15  1  0  0  0  0
  5 16  1  0  0  0  0
  5 17  1  0  0  0  0
M  END
