  26
 
 C         -4.0362000000        0.6440000000       -0.0368000000
 C         -2.9834000000       -0.4222000000        0.2212000000
 C         -1.5892000000        0.0564000000       -0.1866000000
 C         -0.5348000000       -1.0203000000        0.0795000000
 C          0.8640000000       -0.6436000000       -0.4202000000
 C          1.4893000000        0.5235000000        0.3485000000
 C          2.8904000000        0.8924000000       -0.1469000000
 C          3.9327000000       -0.1839000000        0.1147000000
 H         -3.8222000000        1.5531000000        0.5342000000
 H         -5.0247000000        0.2806000000        0.2611000000
 H         -4.0765000000        0.9065000000       -1.0988000000
 H         -2.9903000000       -0.6845000000        1.2856000000
 H         -3.2453000000       -1.3279000000       -0.3382000000
 H         -1.5881000000        0.3175000000       -1.2517000000
 H         -1.3471000000        0.9672000000        0.3720000000
 H         -0.4946000000       -1.2436000000        1.1526000000
 H         -0.8374000000       -1.9470000000       -0.4242000000
 H          1.5004000000       -1.5301000000       -0.3204000000
 H          0.8202000000       -0.4032000000       -1.4893000000
 H          0.8571000000        1.4123000000        0.2447000000
 H          1.5287000000        0.2847000000        1.4182000000
 H          2.8601000000        1.1192000000       -1.2190000000
 H          3.2063000000        1.8109000000        0.3622000000
 H          3.9593000000       -0.4564000000        1.1744000000
 H          4.9263000000        0.1804000000       -0.1660000000
 H          3.7350000000       -1.0862000000       -0.4708000000
