26
Generated by generate_xyz.py
C  -4.036200000   0.644000000  -0.036800000
C  -2.983400000  -0.422200000   0.221200000
C  -1.589200000   0.056400000  -0.186600000
C  -0.534800000  -1.020300000   0.079500000
C   0.864000000  -0.643600000  -0.420200000
C   1.489300000   0.523500000   0.348500000
C   2.890400000   0.892400000  -0.146900000
C   3.932700000  -0.183900000   0.114700000
H  -3.822200000   1.553100000   0.534200000
H  -5.024700000   0.280600000   0.261100000
H  -4.076500000   0.906500000  -1.098800000
H  -2.990300000  -0.684500000   1.285600000
H  -3.245300000  -1.327900000  -0.338200000
H  -1.588100000   0.317500000  -1.251700000
H  -1.347100000   0.967200000   0.372000000
H  -0.494600000  -1.243600000   1.152600000
H  -0.837400000  -1.947000000  -0.424200000
H   1.500400000  -1.530100000  -0.320400000
H   0.820200000  -0.403200000  -1.489300000
H   0.857100000   1.412300000   0.244700000
H   1.528700000   0.284700000   1.418200000
H   2.860100000   1.119200000  -1.219000000
H   3.206300000   1.810900000   0.362200000
H   3.959300000  -0.456400000   1.174400000
H   4.926300000   0.180400000  -0.166000000
H   3.735000000  -1.086200000  -0.470800000
