  38
 
 C          5.3225655656       -0.1420446196       -0.3324943171
 C          4.2586327977       -1.1662956590       -0.6968473561
 C          3.0601052785       -1.1634338180        0.2575403303
 C          2.2644240945        0.1423753581        0.2323964624
 C          1.0099425950        0.0920378377        1.1049149996
 C          0.2456220277        1.4181492521        1.1547912622
 C         -0.2368923330        1.9207924323       -0.2102859847
 C         -1.1330662804        0.9354665238       -0.9658561478
 C         -2.4241171134        0.5897851800       -0.2238291778
 C         -3.3384009959       -0.3383109234       -1.0246292985
 C         -4.6499856272       -0.6730612114       -0.3066894915
 C         -4.4523159085       -1.5114847132        0.9472136288
 H          6.1874712720       -0.1941058044       -0.9985763740
 H          5.6848384333       -0.2940812409        0.6864715038
 H          4.9351833908        0.8770475673       -0.3879698464
 H          3.9037264850       -0.9873038075       -1.7208402337
 H          4.7075344433       -2.1695473562       -0.7227240899
 H          3.4036756065       -1.3617993847        1.2805601445
 H          2.3861974176       -1.9962397392        0.0159456844
 H          2.9000194107        0.9749893424        0.5567054273
 H          1.9892755847        0.3784261354       -0.8025253630
 H          0.3491591272       -0.7070560462        0.7473921731
 H          1.2934252572       -0.2138183944        2.1209831564
 H          0.8864811689        2.1800318867        1.6188109943
 H         -0.6134769359        1.3235745402        1.8316091831
 H         -0.7792816010        2.8671140730       -0.0813700910
 H          0.6324976982        2.1776205902       -0.8294480600
 H         -0.5784109890        0.0139677992       -1.1805011307
 H         -1.3872810318        1.3444910927       -1.9529631201
 H         -2.9632621353        1.5119548379        0.0264043061
 H         -2.1829207779        0.1290148847        0.7406786308
 H         -3.5494415072        0.1228398553       -1.9987497163
 H         -2.8016181580       -1.2662157221       -1.2584907786
 H         -5.3250827081       -1.1991191163       -0.9967644157
 H         -5.1713571754        0.2603163531       -0.0549595299
 H         -5.4024253756       -1.7749097228        1.4187296362
 H         -3.8572483616       -0.9840327775        1.6949775714
 H         -3.9309789388       -2.4438995450        0.7201901500
          38
         -5.50787108
 C          5.3778829249        1.6911874470        0.4399904021
 C          4.4263777509        0.9337097011       -0.4761023123
 C          3.2852221783        0.2642134760        0.2900466521
 C          2.3260529344       -0.5174060847       -0.6115266670
 C          1.1319588476       -1.0814663758        0.1569186331
 C          0.1431075597       -1.8385101743       -0.7350308742
 C         -1.0432231167       -2.4341651944        0.0336987371
 C         -1.8258938339       -1.4074538575        0.8597882163
 C         -2.4256540016       -0.2778819863        0.0213850972
 C         -3.0639104465        0.8281528770        0.8676819523
 C         -3.6046523725        1.9965485480        0.0392652893
 C         -4.7699136258        1.6047197443       -0.8591762976
 H          4.8539930769        2.4626888883        1.0056905135
 H          6.1799560841        2.1918203909       -0.1100440569
 H          5.8451796276        1.0205646090        1.1657258076
 H          4.0077311239        1.6153852276       -1.2273869185
 H          4.9754921990        0.1759273386       -1.0538704266
 H          2.7250936439        1.0251428300        0.8483853538
 H          3.7011870059       -0.4057532900        1.0528253791
 H          1.9695127163        0.1321492394       -1.4216915878
 H          2.8656086132       -1.3314160725       -1.1150807828
 H          1.4871891146       -1.7417679711        0.9589687582
 H          0.6162691230       -0.2577198342        0.6663912454
 H          0.6811184696       -2.6290763259       -1.2783152522
 H         -0.2254374349       -1.1659084430       -1.5218871084
 H         -1.7335920936       -2.9213099176       -0.6685690842
 H         -0.6832654973       -3.2410569161        0.6863578726
 H         -1.1744577883       -0.9740941872        1.6253456718
 H         -2.6242449159       -1.9057045194        1.4230220497
 H         -3.1605066852       -0.6939406154       -0.6802704251
 H         -1.6478672646        0.1669436960       -0.6110314466
 H         -3.8748630107        0.4015271011        1.4723904712
 H         -2.3267655825        1.1930393569        1.5966951811
 H         -2.7912160906        2.4223135794       -0.5645341102
 H         -3.9194333224        2.8092270810        0.7113014207
 H         -4.4579287718        0.9262201172       -1.6559609105
 H         -5.2309956813        2.4723110169       -1.3361230688
 H         -5.5495599021        1.0928928457       -0.2893607059
