38
Generated by generate_xyz.py
C   5.338700000  -0.191700000  -0.304000000
C   4.246200000  -1.174100000  -0.696800000
C   3.044600000  -1.162800000   0.250500000
C   2.270900000   0.158300000   0.233200000
C   1.019300000   0.075200000   1.110800000
C   0.262400000   1.402400000   1.218000000
C  -0.257700000   1.980400000  -0.102200000
C  -1.163100000   1.056800000  -0.922600000
C  -2.437800000   0.641300000  -0.183600000
C  -3.349900000  -0.195500000  -1.084800000
C  -4.684400000  -0.556600000  -0.429000000
C  -4.541800000  -1.481300000   0.770100000
H   6.207500000  -0.315300000  -0.958500000
H   5.665200000  -0.358400000   0.727300000
H   4.999600000   0.844100000  -0.397300000
H   3.916400000  -0.962600000  -1.720700000
H   4.672700000  -2.184300000  -0.704000000
H   3.379900000  -1.382400000   1.271500000
H   2.370000000  -1.976900000  -0.042600000
H   2.909100000   0.971800000   0.595300000
H   1.990700000   0.395600000  -0.799100000
H   0.352200000  -0.709300000   0.735600000
H   1.312800000  -0.229700000   2.123300000
H   0.920400000   2.147800000   1.682900000
H  -0.576200000   1.270900000   1.912100000
H  -0.805300000   2.905100000   0.120500000
H   0.592300000   2.280100000  -0.726700000
H  -0.607700000   0.165600000  -1.236400000
H  -1.439700000   1.586000000  -1.843300000
H  -2.974800000   1.535800000   0.153700000
H  -2.173200000   0.062600000   0.706900000
H  -3.561500000   0.367000000  -2.002700000
H  -2.829600000  -1.112000000  -1.388800000
H  -5.315300000  -1.051900000  -1.176700000
H  -5.210400000   0.356100000  -0.125400000
H  -5.530500000  -1.781600000   1.131900000
H  -4.023000000  -0.988800000   1.597600000
H  -3.988900000  -2.387700000   0.504100000
