 xtb: 6.6.1 (8d0f1dd)
          04202410573D

 41 40  0     0  0            999 V2000
    5.3157   -1.3314    1.4943 C   0  0  0  0  0  0  0  0  0  0  0  0
    3.8471   -1.2426    1.0986 C   0  0  0  0  0  0  0  0  0  0  0  0
    3.5126    0.0969    0.4466 C   0  0  0  0  0  0  0  0  0  0  0  0
    2.0357    0.2010    0.0743 C   0  0  0  0  0  0  0  0  0  0  0  0
    1.6983    1.5509   -0.5563 C   0  0  0  0  0  0  0  0  0  0  0  0
    0.2049    1.7267   -0.8364 C   0  0  0  0  0  0  0  0  0  0  0  0
   -0.2930    0.8570   -1.9889 C   0  0  0  0  0  0  0  0  0  0  0  0
   -1.7786    1.0522   -2.2997 C   0  0  0  0  0  0  0  0  0  0  0  0
   -2.7271    0.6688   -1.1619 C   0  0  0  0  0  0  0  0  0  0  0  0
   -2.6327   -0.8048   -0.7728 C   0  0  0  0  0  0  0  0  0  0  0  0
   -3.6704   -1.2203    0.2712 C   0  0  0  0  0  0  0  0  0  0  0  0
   -3.5119   -0.5445    1.6348 C   0  0  0  0  0  0  0  0  0  0  0  0
   -2.1803   -0.8528    2.3099 C   0  0  0  0  0  0  0  0  0  0  0  0
    5.5315   -2.2922    1.9560 H   0  0  0  0  0  0  0  0  0  0  0  0
    5.5672   -0.5457    2.2036 H   0  0  0  0  0  0  0  0  0  0  0  0
    5.9539   -1.2192    0.6204 H   0  0  0  0  0  0  0  0  0  0  0  0
    3.6087   -2.0517    0.4042 H   0  0  0  0  0  0  0  0  0  0  0  0
    3.2242   -1.3756    1.9864 H   0  0  0  0  0  0  0  0  0  0  0  0
    4.1217    0.2235   -0.4517 H   0  0  0  0  0  0  0  0  0  0  0  0
    3.7694    0.9057    1.1353 H   0  0  0  0  0  0  0  0  0  0  0  0
    1.4304    0.0637    0.9743 H   0  0  0  0  0  0  0  0  0  0  0  0
    1.7880   -0.6054   -0.6184 H   0  0  0  0  0  0  0  0  0  0  0  0
    2.2595    1.6679   -1.4864 H   0  0  0  0  0  0  0  0  0  0  0  0
    2.0224    2.3421    0.1249 H   0  0  0  0  0  0  0  0  0  0  0  0
    0.0104    2.7743   -1.0803 H   0  0  0  0  0  0  0  0  0  0  0  0
   -0.3486    1.4915    0.0741 H   0  0  0  0  0  0  0  0  0  0  0  0
   -0.1069   -0.1938   -1.7678 H   0  0  0  0  0  0  0  0  0  0  0  0
    0.2799    1.1070   -2.8859 H   0  0  0  0  0  0  0  0  0  0  0  0
   -1.9501    2.1011   -2.5561 H   0  0  0  0  0  0  0  0  0  0  0  0
   -2.0276    0.4539   -3.1802 H   0  0  0  0  0  0  0  0  0  0  0  0
   -3.7506    0.8823   -1.4824 H   0  0  0  0  0  0  0  0  0  0  0  0
   -2.5212    1.2961   -0.2947 H   0  0  0  0  0  0  0  0  0  0  0  0
   -2.7835   -1.4132   -1.6687 H   0  0  0  0  0  0  0  0  0  0  0  0
   -1.6361   -1.0254   -0.3918 H   0  0  0  0  0  0  0  0  0  0  0  0
   -3.6064   -2.3027    0.4110 H   0  0  0  0  0  0  0  0  0  0  0  0
   -4.6691   -0.9972   -0.1136 H   0  0  0  0  0  0  0  0  0  0  0  0
   -4.3224   -0.8913    2.2810 H   0  0  0  0  0  0  0  0  0  0  0  0
   -3.6239    0.5357    1.5273 H   0  0  0  0  0  0  0  0  0  0  0  0
   -1.3503   -0.4228    1.7552 H   0  0  0  0  0  0  0  0  0  0  0  0
   -2.1630   -0.4392    3.3160 H   0  0  0  0  0  0  0  0  0  0  0  0
   -2.0276   -1.9280    2.3784 H   0  0  0  0  0  0  0  0  0  0  0  0
  1  2  1  0  0  0  0
  2  3  1  0  0  0  0
  3  4  1  0  0  0  0
  4  5  1  0  0  0  0
  5  6  1  0  0  0  0
  6  7  1  0  0  0  0
  7  8  1  0  0  0  0
  8  9  1  0  0  0  0
  9 10  1  0  0  0  0
 10 11  1  0  0  0  0
 11 12  1  0  0  0  0
 12 13  1  0  0  0  0
  1 14  1  0  0  0  0
  1 15  1  0  0  0  0
  1 16  1  0  0  0  0
  2 17  1  0  0  0  0
  2 18  1  0  0  0  0
  3 19  1  0  0  0  0
  3 20  1  0  0  0  0
  4 21  1  0  0  0  0
  4 22  1  0  0  0  0
  5 23  1  0  0  0  0
  5 24  1  0  0  0  0
  6 25  1  0  0  0  0
  6 26  1  0  0  0  0
  7 27  1  0  0  0  0
  7 28  1  0  0  0  0
  8 29  1  0  0  0  0
  8 30  1  0  0  0  0
  9 31  1  0  0  0  0
  9 32  1  0  0  0  0
 10 33  1  0  0  0  0
 10 34  1  0  0  0  0
 11 35  1  0  0  0  0
 11 36  1  0  0  0  0
 12 37  1  0  0  0  0
 12 38  1  0  0  0  0
 13 39  1  0  0  0  0
 13 40  1  0  0  0  0
 13 41  1  0  0  0  0
M  END
